@<TRIPOS>MOLECULE
ZINC00382311_replica-1.pdb
 23 24 0 0 0
SMALL
GASTEIGER

@<TRIPOS>ATOM
      1  C6         0.4320   30.9960   56.7480 C.3     0  <0>0        0.1156
      2  N1        -0.9400   30.6000   57.1040 N.am    0  <0>0       -0.3050
      3  C7        -1.2730   29.5750   56.3000 C.2     0  <0>0        0.1528
      4  S1        -2.7850   28.7720   56.3400 S.2     0  <0>0       -0.0170
      5  N2        -0.2770   29.2600   55.4620 N.am    0  <0>0       -0.2132
      6  N3         0.8050   30.0700   55.6590 N.3     0  <0>0       -0.2098
      7  H12       -1.4980   31.0020   57.7900 H       0  <0>0        0.1496
      8  H13        1.0350   30.5760   54.8170 H       0  <0>0        0.1472
      9  C8        -0.3360   28.2350   54.5120 C.ar    0  <0>0        0.0682
     10  C13       -0.9890   28.4430   53.3040 C.ar    0  <0>0        0.0117
     11  C12       -1.0460   27.4300   52.3670 C.ar    0  <0>0       -0.0245
     12  C11       -0.4520   26.2090   52.6300 C.ar    0  <0>0       -0.0257
     13  C14       -1.7560   27.6550   51.0570 C.3     0  <0>0        0.0307
     14  C10        0.2000   25.9990   53.8320 C.ar    0  <0>0       -0.0032
     15  C15       -0.5150   25.1060   51.6060 C.3     0  <0>0        0.0307
     16  C9         0.2650   27.0100   54.7710 C.ar    0  <0>0        0.0159
     17  C5         0.4600   32.4430   56.2520 C.3     0  <0>0        0.0348
     18  C3         1.3080   33.2920   57.2000 C.3     0  <0>0        0.0030
     19  C4         2.4230   33.9800   56.4090 C.3     0  <0>0        0.0001
     20  C2         0.4270   34.3510   57.8640 C.3     0  <0>0        0.0001
     21  C1         0.5950   34.2760   59.3830 C.3     0  <0>0        0.0000
     22  C16        1.3690   30.8190   57.9440 C.3     0  <0>0        0.0348
     23  C17        0.5500   30.4530   59.1830 C.3     0  <0>0        0.0032
@<TRIPOS>BOND
     1    13    11    1
     2    15    12    1
     3    11    12   ar
     4    11    10   ar
     5    12    14   ar
     6    10     9   ar
     7    14    16   ar
     8     9    16   ar
     9     9     5    1
    10     8     6    1
    11     5     6    1
    12     5     3    1
    13     6     1    1
    14    17     1    1
    15    17    18    1
    16     3     4    2
    17     3     2    1
    18    19    18    1
    19     1     2    1
    20     1    22    1
    21     2     7    1
    22    18    20    1
    23    20    21    1
    24    22    23    1
