@<TRIPOS>MOLECULE
ZINC45928991_replica-1.pdb
 24 25 0 0 0
SMALL
GASTEIGER

@<TRIPOS>ATOM
      1  N1         1.0320   32.0110   55.3560 N.am    0  <0>0       -0.2975
      2  C9         1.8880   32.4140   56.3150 C.2     0  <0>0        0.2464
      3  O2         2.1350   31.6840   57.2560 O.2     0  <0>0       -0.2701
      4  H10        0.8330   32.5940   54.6050 H       0  <0>0        0.1499
      5  C10        2.5240   33.7410   56.2250 C.ar    0  <0>0        0.0593
      6  C15        1.9620   34.8410   56.8950 C.ar    0  <0>0        0.0371
      7  C14        2.5750   36.0850   56.8060 C.ar    0  <0>0        0.0065
      8  C13        3.7220   36.2390   56.0550 C.ar    0  <0>0        0.0005
      9  C12        4.2750   35.1570   55.3880 C.ar    0  <0>0        0.0002
     10  C11        3.6860   33.9150   55.4690 C.ar    0  <0>0        0.0050
     11  S1         0.4920   34.6420   57.8460 S.3     0  <0>0       -0.0143
     12  C16        1.0970   34.2170   59.5030 C.3     0  <0>0        0.4477
     13  F1         0.5460   35.0990   60.4400 F       0  <0>0       -0.1600
     14  F2         0.7170   32.9080   59.8160 F       0  <0>0       -0.1600
     15  F3         2.4910   34.3180   59.5310 F       0  <0>0       -0.1600
     16  C8         0.3990   30.6930   55.4450 C.3     0  <0>0        0.1374
     17  C7        -0.6160   30.5350   54.3110 C.3     0  <0>0        0.2265
     18  O1        -1.3320   29.3100   54.4810 O.3     0  <0>0       -0.4736
     19  C4        -1.1330   28.3460   53.5430 C.ar    0  <0>0        0.1386
     20  C3        -0.4030   27.2090   53.8590 C.ar    0  <0>0        0.0369
     21  C2        -0.2040   26.2300   52.9060 C.ar    0  <0>0        0.0031
     22  C1        -0.7300   26.3820   51.6360 C.ar    0  <0>0        0.0002
     23  C6        -1.4580   27.5140   51.3190 C.ar    0  <0>0        0.0031
     24  C5        -1.6600   28.4960   52.2690 C.ar    0  <0>0        0.0369
@<TRIPOS>BOND
     1    23    22   ar
     2    23    24   ar
     3    22    21   ar
     4    24    19   ar
     5    21    20   ar
     6    19    20   ar
     7    19    18    1
     8    17    18    1
     9    17    16    1
    10     4     1    1
    11     1    16    1
    12     1     2   am
    13     9    10   ar
    14     9     8   ar
    15    10     5   ar
    16     8     7   ar
    17     5     2    1
    18     5     6   ar
    19     2     3    2
    20     7     6   ar
    21     6    11    1
    22    11    12    1
    23    12    15    1
    24    12    14    1
    25    12    13    1
