@<TRIPOS>MOLECULE
ZINC34022671_replica-1.pdb
 23 25 0 0 0
SMALL
GASTEIGER

@<TRIPOS>ATOM
      1  C10       10.2870   35.4070   59.7650 C.2     0  <0>0        0.0103
      2  C11        9.5150   36.4680   60.1270 C.2     0  <0>0        0.0699
      3  C12        9.3380   36.7830   61.5120 C.1     0  <0>0        0.1005
      4  N1         9.1960   37.0330   62.6120 N.1     0  <0>0       -0.1908
      5  C13        8.8590   37.2930   59.0900 C.ar    0  <0>0        0.0280
      6  C16        8.4350   36.8490   57.7520 C.ar    0  <0>0        0.0177
      7  C15        7.8630   37.9740   57.1330 C.ar    0  <0>0        0.0567
      8  C17        8.4930   35.6340   57.0720 C.ar    0  <0>0        0.0015
      9  N2         7.9460   39.0220   58.0250 N.ar    0  <0>0       -0.3520
     10  C20        7.3600   37.8610   55.8410 C.ar    0  <0>0        0.0170
     11  C14        8.5380   38.6090   59.1830 C.ar    0  <0>0        0.0731
     12  H1         7.6300   39.9230   57.8540 H       0  <0>0        0.1660
     13  C19        7.4330   36.6550   55.1780 C.ar    0  <0>0        0.0015
     14  C18        7.9930   35.5440   55.7910 C.ar    0  <0>0        0.0001
     15  C7        10.8170   34.4990   60.7910 C.ar    0  <0>0        0.0006
     16  C6        12.0360   34.7820   61.4180 C.ar    0  <0>0       -0.0003
     17  C5        12.5270   33.9250   62.3800 C.ar    0  <0>0       -0.0043
     18  C4        11.8180   32.7870   62.7250 C.ar    0  <0>0       -0.0225
     19  C9        10.6140   32.4980   62.1060 C.ar    0  <0>0       -0.0043
     20  C8        10.1070   33.3470   61.1460 C.ar    0  <0>0       -0.0003
     21  C2        12.3620   31.8560   63.7770 C.3     0  <0>0        0.0224
     22  C1        11.7590   30.4630   63.5860 C.3     0  <0>0        0.0047
     23  C3        13.8850   31.7740   63.6490 C.3     0  <0>0        0.0047
@<TRIPOS>BOND
     1    13    14   ar
     2    13    10   ar
     3    14     8   ar
     4    10     7   ar
     5     8     6   ar
     6     7     6   ar
     7     7     9   ar
     8     6     5   ar
     9    12     9    1
    10     9    11   ar
    11     5    11   ar
    12     5     2    1
    13     1     2    2
    14     1    15    1
    15     2     3    1
    16    15    20   ar
    17    15    16   ar
    18    20    19   ar
    19    16    17   ar
    20     3     4    3
    21    19    18   ar
    22    17    18   ar
    23    18    21    1
    24    22    21    1
    25    23    21    1
