@<TRIPOS>MOLECULE
ZINC06439426_replica-1.pdb
 33 36 0 0 0
SMALL
GASTEIGER

@<TRIPOS>ATOM
      1  C5        -0.6970   29.6070   54.9260 C.3     0  <0>0        0.0553
      2  C4        -1.0500   31.0700   55.1950 C.3     0  <0>0        0.0959
      3  C3         0.1330   31.7670   55.8170 C.2     0  <0>0        0.2452
      4  N1         0.0720   33.0840   56.0920 N.am    0  <0>0       -0.1932
      5  H8        -0.7360   33.5840   55.8950 H       0  <0>0        0.1825
      6  O2         1.1430   31.1420   56.0640 O.2     0  <0>0       -0.2730
      7  O1         1.1850   33.7400   56.6710 O.3     0  <0>0       -0.2664
      8  C2         0.9920   34.1210   58.0350 C.3     0  <0>0        0.1711
      9  C1         1.1810   35.6330   58.1740 C.3     0  <0>0        0.0373
     10  C6        -1.2420   28.7460   56.0360 C.ar    0  <0>0       -0.0149
     11  C11       -0.3980   27.9060   56.7360 C.ar    0  <0>0        0.0330
     12  C10       -0.9010   27.1140   57.7580 C.ar    0  <0>0        0.1387
     13  C9        -2.2500   27.1690   58.0750 C.ar    0  <0>0        0.0369
     14  C8        -3.0910   28.0110   57.3720 C.ar    0  <0>0        0.0028
     15  C7        -2.5870   28.8020   56.3570 C.ar    0  <0>0       -0.0037
     16  O3        -0.0730   26.2860   58.4480 O.3     0  <0>0       -0.4707
     17  C12       -0.5550   24.9690   58.7240 C.3     0  <0>0        0.2320
     18  C13       -0.1760   24.0480   57.5930 C.ar    0  <0>0        0.0212
     19  C18       -0.2970   22.6790   57.7450 C.ar    0  <0>0       -0.0007
     20  C17        0.0510   21.8360   56.7070 C.ar    0  <0>0       -0.0002
     21  C16        0.5190   22.3600   55.5170 C.ar    0  <0>0       -0.0000
     22  C15        0.6390   23.7280   55.3650 C.ar    0  <0>0       -0.0002
     23  C14        0.2870   24.5730   56.4010 C.ar    0  <0>0       -0.0007
     24  C19       -1.3020   29.1770   53.6140 C.ar    0  <0>0        0.0004
     25  C22       -1.0850   27.8990   52.9320 C.ar    0  <0>0        0.0134
     26  C21       -1.8540   27.9520   51.7550 C.ar    0  <0>0        0.0563
     27  C23       -0.3410   26.7550   53.2270 C.ar    0  <0>0        0.0012
     28  N2        -2.4770   29.1800   51.7310 N.ar    0  <0>0       -0.3522
     29  C26       -1.8520   26.8620   50.8900 C.ar    0  <0>0        0.0170
     30  C20       -2.1360   29.8960   52.8460 C.ar    0  <0>0        0.0684
     31  H2        -3.0690   29.4910   51.0280 H       0  <0>0        0.1660
     32  C25       -1.1050   25.7460   51.1980 C.ar    0  <0>0        0.0015
     33  C24       -0.3540   25.6970   52.3640 C.ar    0  <0>0        0.0001
@<TRIPOS>BOND
     1    29    32   ar
     2    29    26   ar
     3    31    28    1
     4    32    33   ar
     5    28    26   ar
     6    28    30   ar
     7    26    25   ar
     8    33    27   ar
     9    30    24   ar
    10    25    27   ar
    11    25    24   ar
    12    24     1    1
    13     1     2    1
    14     1    10    1
    15     2     3    1
    16    22    21   ar
    17    22    23   ar
    18    21    20   ar
    19     3     6    2
    20     3     4   am
    21     5     4    1
    22    10    15   ar
    23    10    11   ar
    24     4     7    1
    25    15    14   ar
    26    23    18   ar
    27     7     8    1
    28    20    19   ar
    29    11    12   ar
    30    14    13   ar
    31    18    19   ar
    32    18    17    1
    33    12    13   ar
    34    12    16    1
    35     8     9    1
    36    16    17    1
