@<TRIPOS>MOLECULE
ZINC00846131_replica-1.pdb
 28 32 0 0 0
SMALL
GASTEIGER

@<TRIPOS>ATOM
      1  C7         7.1830   34.6520   57.0660 C.2     0  <0>0        0.0341
      2  C8         7.6100   35.8550   56.4890 C.2     0  <0>0        0.0268
      3  C9         8.8230   36.5620   57.0260 C.3     0  <0>0        0.0346
      4  C10        8.9460   36.4420   58.5440 C.3     0  <0>0        0.0282
      5  C11        8.8120   34.9740   58.9360 C.2     0  <0>0       -0.0219
      6  C12        7.9670   34.1770   58.1930 C.2     0  <0>0        0.0303
      7  S2         8.0980   32.5770   58.9270 S.3     0  <0>0       -0.0591
      8  C13        9.2640   32.9900   60.2040 C.2     0  <0>0        0.1517
      9  C14        9.4970   34.3690   60.0010 C.3     0  <0>0        0.1543
     10  C15       10.4490   34.9880   60.9530 C.2     0  <0>0        0.2415
     11  O1        10.7180   36.1730   60.8850 O.2     0  <0>0       -0.2737
     12  N1        11.0070   34.2080   61.8960 N.am    0  <0>0       -0.2369
     13  C16       10.7050   32.8810   61.9890 C.2     0  <0>0        0.1659
     14  N2         9.8630   32.3120   61.1740 N.2     0  <0>0       -0.3882
     15  C17       11.3810   32.0740   63.0740 C.3     0  <0>0        0.0752
     16  C18       12.8430   31.8500   62.6910 C.3     0  <0>0        0.0089
     17  C19       13.7160   32.9950   63.1750 C.3     0  <0>0        0.0023
     18  C20       13.3740   34.3060   62.4870 C.3     0  <0>0        0.0220
     19  C21       11.9670   34.7700   62.8540 C.3     0  <0>0        0.1003
     20  S1         5.7860   33.7670   56.4570 S.3     0  <0>0       -0.0867
     21  C4         4.4880   34.6710   57.2340 C.ar    0  <0>0        0.0295
     22  C3         4.3930   34.6990   58.6200 C.ar    0  <0>0        0.0065
     23  C2         3.3780   35.4130   59.2260 C.ar    0  <0>0        0.0005
     24  C1         2.4510   36.0890   58.4550 C.ar    0  <0>0        0.0000
     25  C6         2.5420   36.0630   57.0740 C.ar    0  <0>0        0.0005
     26  C5         3.5580   35.3560   56.4620 C.ar    0  <0>0        0.0065
     27  C22        6.9080   36.4000   55.4200 C.2     0  <0>0        0.2304
     28  O2         6.3610   37.4790   55.5390 O.2     0  <0>0       -0.2835
@<TRIPOS>BOND
     1    27    28    2
     2    27     2    1
     3    20     1    1
     4    20    21    1
     5    26    25   ar
     6    26    21   ar
     7     2     3    1
     8     2     1    2
     9     3     4    1
    10     1     6    1
    11    25    24   ar
    12    21    22   ar
    13     6     7    1
    14     6     5    2
    15    24    23   ar
    16     4     5    1
    17    22    23   ar
    18     7     8    1
    19     5     9    1
    20     9     8    1
    21     9    10    1
    22     8    14    2
    23    11    10    2
    24    10    12   am
    25    14    13    2
    26    12    13    1
    27    12    19    1
    28    13    15    1
    29    18    19    1
    30    18    17    1
    31    16    15    1
    32    16    17    1
