@<TRIPOS>MOLECULE
ZINC50328690_replica-1.pdb
 19 20 0 0 0
SMALL
GASTEIGER

@<TRIPOS>ATOM
      1  C4         7.8230   35.4450   57.7390 C.3     0  <0>0       -0.0403
      2  N1         6.3720   35.6270   57.8790 N.4     0  <0>0        0.3874
      3  H10        6.0650   36.3680   57.2660 H       0  <0>0       -0.0840
      4  H28        6.1540   35.8700   58.8340 H       0  <0>0       -0.0840
      5  C3         5.6850   34.3800   57.5210 C.3     0  <0>0       -0.0812
      6  C2         4.5360   34.1300   58.5010 C.3     0  <0>0       -0.0233
      7  C1         3.9580   35.4680   58.9630 C.3     0  <0>0       -0.0023
      8  C5         8.4050   36.5990   56.9230 C.3     0  <0>0        0.0164
      9  C8         7.9320   36.5170   55.4580 C.3     0  <0>0        0.1404
     10  O1         7.1450   37.6950   55.1990 O.3     0  <0>0       -0.3538
     11  C7         7.6110   38.7210   56.1020 C.3     0  <0>0        0.1422
     12  C6         7.8530   37.9540   57.4270 C.3     0  <0>0        0.0328
     13  C9         8.4600   35.4230   59.1050 C.2     0  <0>0       -0.0683
     14  C15        7.5940   35.5170   60.3410 C.3     0  <0>0        0.0196
     15  C14        7.7840   36.8910   60.9740 C.3     0  <0>0        0.0043
     16  C13        8.9850   36.8960   61.9030 C.3     0  <0>0        0.0007
     17  C12       10.3100   36.7060   61.1870 C.3     0  <0>0        0.0047
     18  C11       10.4010   35.3060   60.5770 C.3     0  <0>0        0.0253
     19  C10        9.7480   35.3280   59.2120 C.2     0  <0>0       -0.0366
@<TRIPOS>BOND
     1    10     9    1
     2    10    11    1
     3     9     8    1
     4    11    12    1
     5     8    12    1
     6     8     1    1
     7     3     2    1
     8     5     2    1
     9     5     6    1
    10     1     2    1
    11     1    13    1
    12     2     4    1
    13     6     7    1
    14    13    19    2
    15    13    14    1
    16    19    18    1
    17    14    15    1
    18    18    17    1
    19    15    16    1
    20    17    16    1
