@<TRIPOS>MOLECULE
ZINC16327961_replica-1.pdb
 27 28 0 0 0
SMALL
GASTEIGER

@<TRIPOS>ATOM
      1  C9         7.8650   33.8820   57.2320 C.ar    0  <0>0        0.1865
      2  N2         7.6550   32.8010   56.5080 N.ar    0  <0>0       -0.1249
      3  N3         6.4600   32.1270   56.6140 N.ar    0  <0>0       -0.1331
      4  C10        5.5300   32.5680   57.4390 C.ar    0  <0>0        0.1610
      5  S1         6.3250   34.0130   58.1270 S.2     0  <0>0       -0.0242
      6  N1         8.9860   34.7060   57.2820 N.pl3   0  <0>0       -0.2918
      7  H10        9.7850   34.4660   56.7890 H       0  <0>0        0.1541
      8  C8         8.9580   35.8780   58.0420 C.ar    0  <0>0        0.0416
      9  C3         9.4150   35.8660   59.3550 C.ar    0  <0>0       -0.0090
     10  C4         9.3910   37.0270   60.1020 C.ar    0  <0>0       -0.0031
     11  C5         8.9020   38.1970   59.5490 C.ar    0  <0>0       -0.0006
     12  C6         8.4410   38.2100   58.2460 C.ar    0  <0>0       -0.0031
     13  C7         8.4680   37.0550   57.4910 C.ar    0  <0>0       -0.0090
     14  C2         9.9420   34.5910   59.9580 C.3     0  <0>0        0.0276
     15  C1        10.9790   34.9260   61.0330 C.3     0  <0>0        0.0051
     16  C17        7.9660   37.0700   56.0700 C.3     0  <0>0        0.0276
     17  C18        7.1720   38.3550   55.8230 C.3     0  <0>0        0.0051
     18  S2         3.9280   31.9120   57.7690 S.3     0  <0>0       -0.0782
     19  C11        2.8680   32.6880   56.5180 C.3     0  <0>0        0.1299
     20  C12        2.7130   34.1770   56.8350 C.3     0  <0>0        0.0218
     21  C13        1.5140   32.0280   56.5280 C.2     0  <0>0        0.2325
     22  O1         0.7120   32.3000   57.3960 O.2     0  <0>0       -0.2742
     23  N4         1.1940   31.1350   55.5700 N.am    0  <0>0       -0.3053
     24  H14        1.8340   30.9180   54.8760 H       0  <0>0        0.1494
     25  C14       -0.1220   30.4880   55.5830 C.3     0  <0>0        0.0717
     26  C15       -0.7740   30.6340   54.2070 C.3     0  <0>0        0.0213
     27  C16        0.0440   29.0040   55.9140 C.3     0  <0>0        0.0213
@<TRIPOS>BOND
     1    26    25    1
     2    24    23    1
     3    23    25    1
     4    23    21   am
     5    25    27    1
     6    17    16    1
     7    16    13    1
     8     2     3   ar
     9     2     1   ar
    10    19    21    1
    11    19    20    1
    12    19    18    1
    13    21    22    2
    14     3     4   ar
    15     7     6    1
    16     1     6    1
    17     1     5   ar
    18     6     8    1
    19     4    18    1
    20     4     5   ar
    21    13     8   ar
    22    13    12   ar
    23     8     9   ar
    24    12    11   ar
    25     9    14    1
    26     9    10   ar
    27    11    10   ar
    28    14    15    1
