@<TRIPOS>MOLECULE
ZINC62769966_replica-1.pdb
 21 22 0 0 0
SMALL
GASTEIGER

@<TRIPOS>ATOM
      1  C14       12.3180   34.4100   62.5270 C.3     0  <0>0        0.0981
      2  C15       13.6750   34.2840   61.8320 C.3     0  <0>0        0.0196
      3  C16       12.4670   35.2690   63.7840 C.3     0  <0>0        0.0196
      4  C17       11.8320   33.0730   62.9010 C.1     0  <0>0        0.0752
      5  N2        11.4560   32.0400   63.1900 N.1     0  <0>0       -0.1956
      6  C11       11.3320   35.0590   61.5890 C.ar    0  <0>0       -0.0096
      7  C10       10.8050   36.3010   61.8940 C.ar    0  <0>0       -0.0020
      8  C9         9.9020   36.8990   61.0370 C.ar    0  <0>0        0.0140
      9  C8         9.5230   36.2510   59.8690 C.ar    0  <0>0        0.0446
     10  C13       10.0490   35.0010   59.5690 C.ar    0  <0>0        0.0140
     11  C12       10.9570   34.4120   60.4270 C.ar    0  <0>0       -0.0020
     12  N1         8.6080   36.8520   59.0000 N.pl3   0  <0>0       -0.3336
     13  H10        8.0480   36.3030   58.4300 H       0  <0>0        0.1468
     14  C2         8.4980   38.3120   58.9500 C.3     0  <0>0        0.0766
     15  C1         7.0850   38.7310   59.3620 C.3     0  <0>0        0.0216
     16  C3         8.7780   38.7960   57.5260 C.3     0  <0>0        0.0839
     17  C4         8.1960   37.8180   56.5390 C.ar    0  <0>0        0.1247
     18  O1         8.7190   36.6230   56.2170 O.2     0  <0>0       -0.4546
     19  C7         7.9330   36.0200   55.3090 C.ar    0  <0>0        0.1791
     20  C6         6.8990   36.8360   55.0340 C.ar    0  <0>0        0.0434
     21  C5         7.0680   37.9940   55.8270 C.ar    0  <0>0        0.0362
@<TRIPOS>BOND
     1    20    19   ar
     2    20    21   ar
     3    19    18   ar
     4    21    17   ar
     5    18    17   ar
     6    17    16    1
     7    16    14    1
     8    13    12    1
     9    14    12    1
    10    14    15    1
    11    12     9    1
    12    10     9   ar
    13    10    11   ar
    14     9     8   ar
    15    11     6   ar
    16     8     7   ar
    17     6     7   ar
    18     6     1    1
    19     2     1    1
    20     1     4    1
    21     1     3    1
    22     4     5    3
