@<TRIPOS>MOLECULE
ZINC41153006_replica-1.pdb
 30 33 0 0 0
SMALL
GASTEIGER

@<TRIPOS>ATOM
      1  N1         0.5500   32.6880   57.5640 N.pl3   0  <0>0       -0.2348
      2  C8        -0.2780   31.5950   57.3770 C.1     0  <0>0        0.2041
      3  N2        -0.3200   30.6660   58.3130 N.2     0  <0>0       -0.3317
      4  C9        -1.1100   29.5920   58.1690 C.2     0  <0>0        0.1343
      5  C10       -1.1810   28.5880   59.1430 C.2     0  <0>0        0.0293
      6  C11       -2.0000   27.5150   58.9470 C.2     0  <0>0        0.0020
      7  C12       -2.7700   27.4030   57.7930 C.2     0  <0>0       -0.0036
      8  C13       -2.7240   28.3620   56.8250 C.2     0  <0>0       -0.0110
      9  C14       -1.8940   29.4750   56.9950 C.3     0  <0>0        0.1426
     10  C15       -1.8060   30.5030   56.0230 C.2     0  <0>0        0.1810
     11  N3        -1.0010   31.5270   56.2620 N.2     0  <0>0       -0.3168
     12  H8         0.5320   33.4240   56.9330 H       0  <0>0        0.1658
     13  C7         1.4160   32.7300   58.6640 C.ar    0  <0>0        0.0923
     14  C2         2.7500   32.3550   58.5180 C.ar    0  <0>0        0.1526
     15  C3         3.6040   32.4040   59.6070 C.ar    0  <0>0        0.0382
     16  C4         3.1310   32.8210   60.8380 C.ar    0  <0>0        0.0032
     17  C5         1.8060   33.1890   60.9860 C.ar    0  <0>0        0.0015
     18  C6         0.9480   33.1420   59.9030 C.ar    0  <0>0        0.0183
     19  O1         3.2130   31.9460   57.3060 O.3     0  <0>0       -0.4702
     20  C1         4.1840   32.7790   56.6690 C.3     0  <0>0        0.2525
     21  N4        -2.5470   30.4420   54.8610 N.pl3   0  <0>0       -0.3101
     22  H13       -3.5070   30.5720   54.8910 H       0  <0>0        0.1489
     23  C16       -1.8810   30.1790   53.5830 C.3     0  <0>0        0.0935
     24  C17       -0.6870   29.2490   53.8110 C.3     0  <0>0        0.0476
     25  C18       -0.8420   28.0150   52.9600 C.ar    0  <0>0       -0.0205
     26  C23       -0.2230   26.8360   53.3340 C.ar    0  <0>0       -0.0042
     27  C22       -0.3690   25.7030   52.5560 C.ar    0  <0>0       -0.0003
     28  C21       -1.1250   25.7500   51.4000 C.ar    0  <0>0       -0.0000
     29  C20       -1.7380   26.9310   51.0240 C.ar    0  <0>0       -0.0003
     30  C19       -1.5970   28.0630   51.8030 C.ar    0  <0>0       -0.0042
@<TRIPOS>BOND
     1    29    28   ar
     2    29    30   ar
     3    28    27   ar
     4    30    25   ar
     5    27    26   ar
     6    25    26   ar
     7    25    24    1
     8    23    24    1
     9    23    21    1
    10    21    22    1
    11    21    10    1
    12    10    11    2
    13    10     9    1
    14    11     2    2
    15    20    19    1
    16     8     9    1
    17     8     7    2
    18    12     1    1
    19     9     4    1
    20    19    14    1
    21     2     1    1
    22     2     3    2
    23     1    13    1
    24     7     6    1
    25     4     3    2
    26     4     5    1
    27    14    13   ar
    28    14    15   ar
    29    13    18   ar
    30     6     5    2
    31    15    16   ar
    32    18    17   ar
    33    16    17   ar
