@<TRIPOS>MOLECULE
ZINC65565284_replica-1.pdb
 23 24 0 0 0
SMALL
GASTEIGER

@<TRIPOS>ATOM
      1  C4         8.8980   36.8980   59.1920 C.ar    0  <0>0        0.0324
      2  C5         9.3490   35.7090   58.6320 C.ar    0  <0>0        0.0078
      3  C6         9.9720   34.7650   59.4240 C.ar    0  <0>0        0.0152
      4  C7        10.1480   35.0040   60.7800 C.ar    0  <0>0        0.0504
      5  C8         9.6960   36.1910   61.3410 C.ar    0  <0>0        0.0152
      6  C9         9.0800   37.1380   60.5490 C.ar    0  <0>0        0.0078
      7  N4        10.7800   34.0460   61.5840 N.am    0  <0>0       -0.2832
      8  C10       11.9060   34.3650   62.2540 C.2     0  <0>0        0.2374
      9  O1        12.4170   35.4530   62.0950 O.2     0  <0>0       -0.2738
     10  H9        10.4080   33.1540   61.6580 H       0  <0>0        0.1549
     11  C11       12.5280   33.3700   63.1990 C.3     0  <0>0        0.1505
     12  S2        11.5700   31.8300   63.1740 S.3     0  <0>0       -0.0316
     13  C12       12.6750   30.6130   63.9390 C.3     0  <0>0        0.4442
     14  F1        12.0020   29.9620   64.9800 F       0  <0>0       -0.1602
     15  F2        13.0700   29.6740   62.9810 F       0  <0>0       -0.1602
     16  F3        13.8040   31.2630   64.4480 F       0  <0>0       -0.1602
     17  S1         8.1030   38.1030   58.1820 S.3     0  <0>0       -0.0487
     18  C3         7.4680   37.1710   56.8280 C.ar    0  <0>0        0.1974
     19  N1         6.3610   36.3710   56.8400 N.ar    0  <0>0       -0.2857
     20  C1         5.4670   36.1170   57.9720 C.3     0  <0>0        0.1341
     21  C2         6.2580   35.8630   55.5760 C.ar    0  <0>0        0.2031
     22  N2         7.2520   36.3410   54.8830 N.ar    0  <0>0       -0.1250
     23  N3         7.9720   37.1110   55.6170 N.ar    0  <0>0       -0.1217
@<TRIPOS>BOND
     1    22    21   ar
     2    22    23   ar
     3    21    19   ar
     4    23    18   ar
     5    18    19   ar
     6    18    17    1
     7    19    20    1
     8    17     1    1
     9     2     1   ar
    10     2     3   ar
    11     1     6   ar
    12     3     4   ar
    13     6     5   ar
    14     4     5   ar
    15     4     7    1
    16     7    10    1
    17     7     8   am
    18     9     8    2
    19     8    11    1
    20    15    13    1
    21    12    11    1
    22    12    13    1
    23    13    16    1
    24    13    14    1
