@<TRIPOS>MOLECULE
ZINC39288981_replica-1.pdb
 23 25 0 0 0
SMALL
GASTEIGER

@<TRIPOS>ATOM
      1  C1        10.4100   36.1740   61.1130 C.3     0  <0>0        0.0310
      2  C2         9.6540   35.8620   59.8460 C.ar    0  <0>0       -0.0212
      3  C3         9.4230   34.5490   59.4880 C.ar    0  <0>0        0.0004
      4  C4         8.7230   34.2650   58.3160 C.ar    0  <0>0        0.0574
      5  C5         8.2540   35.3090   57.4990 C.ar    0  <0>0        0.0637
      6  C6         8.4990   36.6220   57.8790 C.ar    0  <0>0        0.0480
      7  C7         9.1880   36.8920   59.0470 C.ar    0  <0>0        0.0037
      8 Br          7.8790   38.0460   56.8000 Br      0  <0>0       -0.0477
      9  N1         7.5920   34.7770   56.3940 N.am    0  <0>0       -0.2481
     10  C8         7.5900   33.4320   56.4240 C.2     0  <0>0        0.2921
     11  O1         7.0890   32.6980   55.5980 O.2     0  <0>0       -0.2661
     12  C9         8.3190   33.0070   57.6630 C.2     0  <0>0        0.2502
     13  O2         8.5290   31.8750   58.0460 O.2     0  <0>0       -0.2816
     14  C10        6.9760   35.5800   55.3360 C.3     0  <0>0        0.1458
     15  C11        5.4530   35.4770   55.4380 C.3     0  <0>0        0.2272
     16  O3         4.9820   36.3730   56.4480 O.3     0  <0>0       -0.4736
     17  C12        4.0320   35.9010   57.2970 C.ar    0  <0>0        0.1387
     18  C17        2.6880   36.0820   57.0040 C.ar    0  <0>0        0.0374
     19  C16        1.7230   35.5950   57.8660 C.ar    0  <0>0        0.0098
     20  C15        2.0970   34.9390   59.0250 C.ar    0  <0>0        0.0348
     21  C14        3.4370   34.7620   59.3210 C.ar    0  <0>0        0.0098
     22 Br          0.7750   34.2810   60.2070 Br      0  <0>0       -0.0490
     23  C13        4.4040   35.2430   58.4590 C.ar    0  <0>0        0.0374
@<TRIPOS>BOND
     1    14    15    1
     2    14     9    1
     3    15    16    1
     4    11    10    2
     5     9    10   am
     6     9     5    1
     7    10    12    1
     8    16    17    1
     9     8     6    1
    10    18    17   ar
    11    18    19   ar
    12    17    23   ar
    13     5     6   ar
    14     5     4   ar
    15    12    13    2
    16    12     4    1
    17    19    20   ar
    18     6     7   ar
    19     4     3   ar
    20    23    21   ar
    21    20    21   ar
    22    20    22    1
    23     7     2   ar
    24     3     2   ar
    25     2     1    1
