@<TRIPOS>MOLECULE
ZINC37078014_replica-1.pdb
 23 24 0 0 0
SMALL
GASTEIGER

@<TRIPOS>ATOM
      1  C3        13.5720   32.9370   63.1820 C.2     0  <0>0        0.2907
      2  C4        12.6970   31.8720   62.9840 C.2     0  <0>0        0.1047
      3  C5        11.3860   32.1350   62.6030 C.2     0  <0>0        0.0019
      4  C6        10.9980   33.4550   62.4350 C.3     0  <0>0        0.0934
      5  C7        11.9240   34.4680   62.6500 C.2     0  <0>0        0.1463
      6  N1        13.1660   34.1850   63.0170 N.2     0  <0>0       -0.3642
      7  S1        11.4400   36.1480   62.4370 S.3     0  <0>0       -0.0594
      8  C8        10.4700   36.1290   60.9660 C.ar    0  <0>0        0.0315
      9  C13       10.5610   35.0580   60.0850 C.ar    0  <0>0        0.0062
     10  C12        9.7950   35.0440   58.9360 C.ar    0  <0>0       -0.0038
     11  C11        8.9480   36.1000   58.6550 C.ar    0  <0>0       -0.0228
     12  C10        8.8590   37.1710   59.5260 C.ar    0  <0>0       -0.0038
     13  C9         9.6170   37.1890   60.6800 C.ar    0  <0>0        0.0062
     14  C14        8.1170   36.0840   57.3980 C.3     0  <0>0        0.0189
     15  C15        6.6460   35.8800   57.7610 C.3     0  <0>0        0.0044
     16  C16        8.2810   37.4160   56.6630 C.3     0  <0>0        0.0044
     17  C17        8.5830   34.9420   56.4920 C.3     0  <0>0        0.0044
     18  O1        14.8550   32.6930   63.5550 O.2     0  <0>0       -0.4509
     19  C2        15.7540   33.8040   63.5560 C.3     0  <0>0        0.2083
     20  C1        16.1920   34.1040   64.9900 C.3     0  <0>0        0.0513
     21  N2        13.1320   30.5510   63.1660 N.pl3   0  <0>0       -0.3527
     22  H21       13.3350   30.2250   64.0570 H       0  <0>0        0.1425
     23  H22       13.2310   29.9630   62.4010 H       0  <0>0        0.1425
@<TRIPOS>BOND
     1    17    14    1
     2    16    14    1
     3    14    15    1
     4    14    11    1
     5    11    10   ar
     6    11    12   ar
     7    10     9   ar
     8    12    13   ar
     9     9     8   ar
    10    13     8   ar
    11     8     7    1
    12    23    21    1
    13     4     3    1
    14     4     5    1
    15     7     5    1
    16     3     2    2
    17     5     6    2
    18     2    21    1
    19     2     1    1
    20     6     1    2
    21    21    22    1
    22     1    18    1
    23    18    19    1
    24    19    20    1
