@<TRIPOS>MOLECULE
ZINC21237687_replica-1.pdb
 35 39 0 0 0
SMALL
GASTEIGER

@<TRIPOS>ATOM
      1  C9         6.3910   30.1500   58.5440 C.3     0  <0>0        0.0356
      2  C10        5.2020   31.0840   58.7650 C.3     0  <0>0        0.0458
      3  C11        5.0930   32.0630   57.6050 C.2     0  <0>0        0.0262
      4  C12        6.2000   32.5060   56.9890 C.2     0  <0>0        0.0436
      5  C13        6.2450   33.5080   55.8590 C.3     0  <0>0        0.1186
      6  N1         4.9540   33.7980   55.2700 N.pl3   0  <0>0       -0.3262
      7  C14        3.9490   34.4150   56.0110 C.ar    0  <0>0        0.0586
      8  C15        3.5000   35.6890   55.6960 C.ar    0  <0>0        0.0156
      9  C16        2.5330   36.2840   56.4860 C.ar    0  <0>0        0.0013
     10  C17        2.0170   35.6200   57.5840 C.ar    0  <0>0        0.0014
     11  C18        2.4500   34.3400   57.8900 C.ar    0  <0>0        0.0158
     12  C19        3.4000   33.7350   57.0880 C.ar    0  <0>0        0.0614
     13  N2         3.8230   32.4250   57.2920 N.pl3   0  <0>0       -0.3150
     14  C26        7.4740   32.0320   57.3810 C.2     0  <0>0        0.1722
     15  O2         8.4600   32.4670   56.8170 O.2     0  <0>0       -0.2916
     16  C27        7.6560   31.0150   58.4670 C.3     0  <0>0        0.0736
     17  H14        4.7550   33.5300   54.2220 H       0  <0>0        0.1474
     18  H19        3.0430   31.6580   57.1820 H       0  <0>0        0.1520
     19  C6         6.5020   29.1840   59.6950 C.ar    0  <0>0       -0.0215
     20  C5         6.9910   29.6170   60.9140 C.ar    0  <0>0       -0.0011
     21  C4         7.0930   28.7340   61.9720 C.ar    0  <0>0        0.0366
     22  C3         6.7040   27.4120   61.8100 C.ar    0  <0>0        0.1385
     23  C8         6.2130   26.9810   60.5860 C.ar    0  <0>0        0.0366
     24  C7         6.1080   27.8690   59.5340 C.ar    0  <0>0       -0.0011
     25  O1         6.8040   26.5420   62.8490 O.3     0  <0>0       -0.4755
     26  C2         5.6400   26.3620   63.6580 C.3     0  <0>0        0.2055
     27  C1         5.8700   26.9970   65.0310 C.3     0  <0>0        0.0512
     28  C20        6.8320   34.7940   56.3810 C.ar    0  <0>0        0.0006
     29  C25        6.6450   35.1530   57.7020 C.ar    0  <0>0        0.0099
     30  C24        7.1860   36.3310   58.1830 C.ar    0  <0>0        0.0679
     31  C23        7.9080   37.1550   57.3370 C.ar    0  <0>0        0.0682
     32 Cl          6.9570   36.7780   59.8450 Cl      0  <0>0       -0.0814
     33  C22        8.0920   36.7970   56.0130 C.ar    0  <0>0        0.0120
     34 Cl          8.5850   38.6380   57.9370 Cl      0  <0>0       -0.0814
     35  C21        7.5530   35.6170   55.5360 C.ar    0  <0>0       -0.0014
@<TRIPOS>BOND
     1    17     6    1
     2     6     5    1
     3     6     7    1
     4    35    33   ar
     5    35    28   ar
     6     8     7   ar
     7     8     9   ar
     8     5    28    1
     9     5     4    1
    10     7    12   ar
    11    33    31   ar
    12    28    29   ar
    13     9    10   ar
    14    15    14    2
    15     4    14    1
    16     4     3    2
    17    12    13    1
    18    12    11   ar
    19    18    13    1
    20    13     3    1
    21    31    34    1
    22    31    30   ar
    23    14    16    1
    24    10    11   ar
    25     3     2    1
    26    29    30   ar
    27    30    32    1
    28    16     1    1
    29     1     2    1
    30     1    19    1
    31    24    19   ar
    32    24    23   ar
    33    19    20   ar
    34    23    22   ar
    35    20    21   ar
    36    22    21   ar
    37    22    25    1
    38    25    26    1
    39    26    27    1
