@<TRIPOS>MOLECULE
ZINC66540781_replica-1.pdb
 23 24 0 0 0
SMALL
GASTEIGER

@<TRIPOS>ATOM
      1  C4        11.9780   33.8470   62.1880 C.3     0  <0>0        0.0750
      2  C5        11.8360   35.0490   63.1250 C.3     0  <0>0        0.0234
      3  C6        11.5480   36.3060   62.2990 C.3     0  <0>0        0.0453
      4  C7        10.2500   36.1130   61.5140 C.3     0  <0>0        0.1693
      5  C8        10.3930   34.9110   60.5780 C.3     0  <0>0        0.0453
      6  C9        10.6800   33.6560   61.4020 C.3     0  <0>0        0.0234
      7  O3         9.9810   37.2870   60.7430 O.3     0  <0>0       -0.4492
      8  C10        8.6950   37.5230   60.4160 C.2     0  <0>0        0.3407
      9  O4         7.8000   37.0580   61.0940 O.2     0  <0>0       -0.2449
     10  C11        8.3740   38.3420   59.2380 C.2     0  <0>0        0.0734
     11  C12        8.4730   37.8200   58.0180 C.2     0  <0>0       -0.0378
     12  C17        8.4110   38.7030   56.7900 C.3     0  <0>0        0.0222
     13  C13        8.6450   36.3310   57.8230 C.3     0  <0>0        0.0222
     14  C16        7.3710   38.1320   55.8270 C.3     0  <0>0        0.0044
     15  C15        7.6950   36.6660   55.5360 C.3     0  <0>0        0.0007
     16  C14        7.5900   35.8460   56.8220 C.3     0  <0>0        0.0044
     17  N1        12.2540   32.6440   62.9780 N.am    0  <0>0       -0.2723
     18  C3        13.5260   32.2550   63.1910 C.2     0  <0>0        0.4016
     19  O2        14.4450   32.9010   62.7280 O.2     0  <0>0       -0.2264
     20  H6        11.5200   32.1280   63.3480 H       0  <0>0        0.1527
     21  O1        13.7790   31.1490   63.9170 O.3     0  <0>0       -0.4347
     22  C2        12.9510   30.0100   63.6720 C.3     0  <0>0        0.2102
     23  C1        12.4690   29.4350   65.0050 C.3     0  <0>0        0.0513
@<TRIPOS>BOND
     1    15    14    1
     2    15    16    1
     3    14    12    1
     4    12    11    1
     5    16    13    1
     6    13    11    1
     7    11    10    2
     8    10     8    1
     9     8     7    1
    10     8     9    2
    11     5     6    1
    12     5     4    1
    13     7     4    1
    14     6     1    1
    15     4     3    1
    16     1    17    1
    17     1     2    1
    18     3     2    1
    19    19    18    2
    20    17    18   am
    21    17    20    1
    22    18    21    1
    23    22    21    1
    24    22    23    1
