@<TRIPOS>MOLECULE
ZINC51597309_replica-1.pdb
 20 20 0 0 0
SMALL
GASTEIGER

@<TRIPOS>ATOM
      1  C1        -1.3150   27.3530   51.0850 C.3     0  <0>0        0.0311
      2  C2        -0.8750   27.2800   52.5240 C.ar    0  <0>0       -0.0206
      3  C3        -0.0800   26.2280   52.9490 C.ar    0  <0>0       -0.0041
      4  C4         0.3290   26.1510   54.2630 C.ar    0  <0>0        0.0027
      5  C5        -0.0610   27.1370   55.1730 C.ar    0  <0>0        0.0329
      6  C6        -0.8660   28.2010   54.7390 C.ar    0  <0>0        0.0492
      7  C7        -1.2640   28.2650   53.4100 C.ar    0  <0>0        0.0103
      8  N1        -1.2600   29.1880   55.6340 N.pl3   0  <0>0       -0.3074
      9  C8        -2.5680   29.1030   56.2900 C.3     0  <0>0        0.1121
     10  C9        -0.3670   30.3130   55.9240 C.3     0  <0>0        0.0729
     11  C10       -0.4520   31.3360   54.7880 C.3     0  <0>0        0.0214
     12  C11       -0.7900   30.9740   57.2380 C.3     0  <0>0        0.0197
     13  C12        0.3010   30.7620   58.2900 C.3     0  <0>0        0.0016
     14  C13        0.6760   32.1080   58.9130 C.3     0  <0>0        0.0001
     15  C14       -0.2170   29.8220   59.3780 C.3     0  <0>0        0.0001
     16  C15        0.3720   27.0600   56.5780 C.2     0  <0>0        0.0792
     17  S1        -0.5630   26.1860   57.7160 S.2     0  <0>0       -0.0351
     18  N2         1.5050   27.6760   56.9700 N.am    0  <0>0       -0.3517
     19  H23        2.0350   28.1720   56.3250 H       0  <0>0        0.1428
     20  H24        1.7910   27.6250   57.8950 H       0  <0>0        0.1428
@<TRIPOS>BOND
     1     1     2    1
     2     2     3   ar
     3     2     7   ar
     4     3     4   ar
     5     7     6   ar
     6     4     5   ar
     7     6     5   ar
     8     6     8    1
     9    11    10    1
    10     5    16    1
    11     8    10    1
    12     8     9    1
    13    10    12    1
    14    19    18    1
    15    16    18    1
    16    16    17    2
    17    18    20    1
    18    12    13    1
    19    13    14    1
    20    13    15    1
