@<TRIPOS>MOLECULE
ZINC61848972_replica-1.pdb
 23 24 0 0 0
SMALL
GASTEIGER

@<TRIPOS>ATOM
      1  C11       -0.2370   29.8160   56.2590 C.ar    0  <0>0        0.0489
      2  C12       -0.1160   30.8080   55.2900 C.ar    0  <0>0        0.0146
      3  C13        0.2360   32.0880   55.6520 C.ar    0  <0>0        0.0039
      4  C14        0.4730   32.3930   56.9960 C.ar    0  <0>0        0.0302
      5  C15        0.3520   31.3930   57.9680 C.ar    0  <0>0        0.0606
      6  C16       -0.0070   30.1160   57.5980 C.ar    0  <0>0        0.0260
      7 Cl          0.6450   31.7640   59.6390 Cl      0  <0>0       -0.0821
      8  N1        -0.5930   28.5230   55.8890 N.pl3   0  <0>0       -0.3052
      9  C2        -1.9450   28.0280   56.1660 C.3     0  <0>0        0.0732
     10  C1        -1.9940   27.4460   57.5800 C.3     0  <0>0        0.0214
     11  C3        -2.9420   29.1810   56.0540 C.3     0  <0>0        0.0214
     12  C4         0.3810   27.6570   55.2220 C.3     0  <0>0        0.1177
     13  C5        -0.1700   27.2090   53.8930 C.ar    0  <0>0       -0.0024
     14  C10       -0.8670   28.1000   53.0980 C.ar    0  <0>0       -0.0026
     15  C9        -1.3700   27.6900   51.8780 C.ar    0  <0>0       -0.0003
     16  C8        -1.1840   26.3870   51.4560 C.ar    0  <0>0       -0.0000
     17  C7        -0.4920   25.4940   52.2530 C.ar    0  <0>0       -0.0003
     18  C6         0.0160   25.9060   53.4720 C.ar    0  <0>0       -0.0026
     19  C17        0.8510   33.7610   57.3870 C.2     0  <0>0        0.0789
     20  S1         2.5020   34.2110   57.4400 S.2     0  <0>0       -0.0351
     21  N2        -0.1030   34.6580   57.7040 N.am    0  <0>0       -0.3517
     22  H18       -1.0330   34.3850   57.7470 H       0  <0>0        0.1428
     23  H19        0.1400   35.5800   57.8910 H       0  <0>0        0.1428
@<TRIPOS>BOND
     1    16    15   ar
     2    16    17   ar
     3    15    14   ar
     4    17    18   ar
     5    14    13   ar
     6    18    13   ar
     7    13    12    1
     8    12     8    1
     9     2     3   ar
    10     2     1   ar
    11     3     4   ar
    12     8     9    1
    13     8     1    1
    14    11     9    1
    15     9    10    1
    16     1     6   ar
    17     4    19    1
    18     4     5   ar
    19    19    20    2
    20    19    21    1
    21     6     5   ar
    22    21    22    1
    23    21    23    1
    24     5     7    1
