@<TRIPOS>MOLECULE
ZINC01019521_replica-1.pdb
 24 26 0 0 0
SMALL
GASTEIGER

@<TRIPOS>ATOM
      1  C7         8.8820   36.0480   60.0480 C.3     0  <0>0        0.1234
      2  C4         8.6560   36.8100   58.7680 C.ar    0  <0>0       -0.0019
      3  C3         8.6710   38.1930   58.7750 C.ar    0  <0>0       -0.0026
      4  C2         8.4640   38.8920   57.6010 C.ar    0  <0>0       -0.0003
      5  C1         8.2420   38.2090   56.4200 C.ar    0  <0>0       -0.0000
      6  C6         8.2280   36.8270   56.4120 C.ar    0  <0>0       -0.0003
      7  C5         8.4400   36.1270   57.5860 C.ar    0  <0>0       -0.0026
      8  C8         7.6490   36.1780   60.9450 C.3     0  <0>0        0.1546
      9  C9         6.4340   35.6840   60.2010 C.ar    0  <0>0        0.0062
     10  C14        6.2700   34.3310   59.9670 C.ar    0  <0>0       -0.0019
     11  C13        5.1570   33.8780   59.2860 C.ar    0  <0>0       -0.0002
     12  C12        4.2060   34.7760   58.8400 C.ar    0  <0>0       -0.0000
     13  C11        4.3700   36.1290   59.0740 C.ar    0  <0>0       -0.0002
     14  C10        5.4810   36.5820   59.7590 C.ar    0  <0>0       -0.0019
     15  O1         7.4620   37.5480   61.3030 O.3     0  <0>0       -0.3780
     16  H13        8.2860   38.0430   61.4130 H       0  <0>0        0.2109
     17  N1        10.0490   36.5960   60.7430 N.pl3   0  <0>0       -0.3285
     18  H14       10.2690   37.5370   60.6540 H       0  <0>0        0.1471
     19  C15       10.8470   35.7650   61.5330 C.ar    0  <0>0        0.0449
     20  C20       10.9010   34.4010   61.2740 C.ar    0  <0>0        0.0143
     21  C19       11.6890   33.5820   62.0580 C.ar    0  <0>0        0.0013
     22  C18       12.4250   34.1180   63.0990 C.ar    0  <0>0        0.0001
     23  C17       12.3730   35.4760   63.3590 C.ar    0  <0>0        0.0013
     24  C16       11.5820   36.2990   62.5830 C.ar    0  <0>0        0.0143
@<TRIPOS>BOND
     1     6     5   ar
     2     6     7   ar
     3     5     4   ar
     4     7     2   ar
     5     4     3   ar
     6     2     3   ar
     7     2     1    1
     8    12    13   ar
     9    12    11   ar
    10    13    14   ar
    11    11    10   ar
    12    14     9   ar
    13    10     9   ar
    14     1    17    1
    15     1     8    1
    16     9     8    1
    17    18    17    1
    18    17    19    1
    19     8    15    1
    20    20    19   ar
    21    20    21   ar
    22    15    16    1
    23    19    24   ar
    24    21    22   ar
    25    24    23   ar
    26    22    23   ar
