@<TRIPOS>MOLECULE
ZINC14455813_replica-1.pdb
 28 32 0 0 0
SMALL
GASTEIGER

@<TRIPOS>ATOM
      1  C6         7.6910   36.4590   58.7300 C.3     0  <0>0        0.0978
      2  C7         8.7080   35.8520   57.7600 C.3     0  <0>0        0.0267
      3  C8         7.9440   34.8310   56.8650 C.3     0  <0>0        0.0023
      4  C9         7.8930   33.5820   57.7220 C.3     0  <0>0        0.0004
      5  C10        8.8360   33.6100   58.6330 C.3     0  <0>0        0.0045
      6  C11        9.6420   34.8830   58.5120 C.3     0  <0>0        0.0255
      7  C12       10.0540   35.3950   59.8560 C.ar    0  <0>0       -0.0080
      8  C13       11.0790   34.7450   60.5300 C.ar    0  <0>0        0.0168
      9  C14       11.4910   35.1830   61.7720 C.ar    0  <0>0        0.1220
     10  C15       10.8860   36.2800   62.3600 C.ar    0  <0>0        0.0211
     11  C16        9.8670   36.9350   61.7000 C.ar    0  <0>0        0.0154
     12  C17        9.4510   36.4930   60.4500 C.ar    0  <0>0        0.0408
     13  N1         8.4120   37.1640   59.7940 N.pl3   0  <0>0       -0.3305
     14  H16        8.1760   38.0720   60.0390 H       0  <0>0        0.1471
     15  S2        12.7920   34.3440   62.6110 S.O2    0  <0>0        0.0633
     16  O1        13.8820   34.2710   61.7030 O.2     0  <0>0       -0.1528
     17  O2        12.9070   34.9500   63.8920 O.2     0  <0>0       -0.1528
     18  N2        12.2860   32.7880   62.8680 N.3     0  <0>0       -0.1555
     19  C21       13.1640   31.6260   63.0980 C.3     0  <0>0        0.0958
     20  C20       12.2840   30.6120   63.8700 C.3     0  <0>0        0.0206
     21  C19       10.9020   30.8220   63.1980 C.3     0  <0>0        0.0206
     22  C18       10.8870   32.3380   62.9090 C.3     0  <0>0        0.0958
     23  C5         6.8500   35.3630   59.3300 C.ar    0  <0>0        0.0210
     24  C2         5.5980   34.9650   58.9920 C.ar    0  <0>0       -0.0178
     25  C1         4.8550   35.6480   57.8730 C.3     0  <0>0        0.0313
     26  C3         5.0160   33.9230   59.6890 C.ar    0  <0>0        0.0029
     27  C4         5.7110   33.3300   60.6900 C.ar    0  <0>0        0.0348
     28  S1         7.2440   34.2460   60.6660 S.2     0  <0>0       -0.0895
@<TRIPOS>BOND
     1     3     4    1
     2     3     2    1
     3     4     5    1
     4     2     6    1
     5     2     1    1
     6    25    24    1
     7     6     5    1
     8     6     7    1
     9     1    23    1
    10     1    13    1
    11    24    23   ar
    12    24    26   ar
    13    23    28   ar
    14    26    27   ar
    15    13    14    1
    16    13    12    1
    17     7    12   ar
    18     7     8   ar
    19    12    11   ar
    20     8     9   ar
    21    28    27   ar
    22    11    10   ar
    23    16    15    2
    24     9    10   ar
    25     9    15    1
    26    15    18    1
    27    15    17    2
    28    18    22    1
    29    18    19    1
    30    22    21    1
    31    19    20    1
    32    21    20    1
