@<TRIPOS>MOLECULE
ZINC37890311_replica-1.pdb
 22 23 0 0 0
SMALL
GASTEIGER

@<TRIPOS>ATOM
      1  C8         7.8130   36.5210   55.3480 C.3     0  <0>0        0.1484
      2  C7         6.5640   35.6400   55.2950 C.3     0  <0>0        0.1030
      3  N1         5.4320   36.3600   55.8940 N.3     0  <0>0       -0.2924
      4  H9         4.9060   36.8570   55.1910 H       0  <0>0        0.1236
      5  C2         4.5650   35.4430   56.6480 C.3     0  <0>0        0.0830
      6  C1         4.5570   34.0730   55.9680 C.3     0  <0>0        0.0225
      7  C3         5.0860   35.3030   58.0560 C.ar    0  <0>0        0.0215
      8  S1         5.6590   33.8380   58.9010 S.2     0  <0>0       -0.0895
      9  C6         6.0660   34.5940   60.4660 C.ar    0  <0>0        0.0352
     10  C5         5.7370   35.8900   60.2450 C.ar    0  <0>0        0.0072
     11  C4         5.2340   36.2530   59.0100 C.ar    0  <0>0        0.0040
     12  C9         8.3460   36.5530   56.7560 C.ar    0  <0>0        0.0056
     13  C14        8.8280   35.3950   57.3390 C.ar    0  <0>0       -0.0022
     14  C13        9.3220   35.4260   58.6300 C.ar    0  <0>0       -0.0045
     15  C12        9.3250   36.6120   59.3420 C.ar    0  <0>0       -0.0225
     16  C11        8.8390   37.7670   58.7610 C.ar    0  <0>0       -0.0045
     17  C10        8.3480   37.7380   57.4680 C.ar    0  <0>0       -0.0022
     18  C15        9.8590   36.6430   60.7500 C.3     0  <0>0        0.0224
     19  C16        8.7170   36.9470   61.7230 C.3     0  <0>0        0.0047
     20  C17       10.4730   35.2850   61.0940 C.3     0  <0>0        0.0047
     21  O1         7.4780   37.8470   54.9350 O.3     0  <0>0       -0.3786
     22  H23        7.9460   38.1420   54.1410 H       0  <0>0        0.2108
@<TRIPOS>BOND
     1    22    21    1
     2    21     1    1
     3     4     3    1
     4     2     1    1
     5     2     3    1
     6     1    12    1
     7     3     5    1
     8     6     5    1
     9     5     7    1
    10    12    13   ar
    11    12    17   ar
    12    13    14   ar
    13    17    16   ar
    14     7     8   ar
    15     7    11   ar
    16    14    15   ar
    17    16    15   ar
    18     8     9   ar
    19    11    10   ar
    20    15    18    1
    21    10     9   ar
    22    18    20    1
    23    18    19    1
