@<TRIPOS>MOLECULE
ZINC13561659_replica-1.pdb
 25 27 0 0 0
SMALL
GASTEIGER

@<TRIPOS>ATOM
      1  C9         7.8580   37.0860   56.6920 C.1     0  <0>0        0.1163
      2  N2         7.4190   38.3230   56.8850 N.2     0  <0>0       -0.1770
      3  C10        7.6930   38.9770   58.0020 C.2     0  <0>0        0.1137
      4  C11        8.4510   38.3580   58.9810 C.2     0  <0>0        0.0545
      5  C12        8.9010   37.0550   58.7500 C.2     0  <0>0        0.1449
      6  N3         8.5820   36.4560   57.6050 N.2     0  <0>0       -0.3443
      7  S1         7.4640   36.2590   55.1890 S.3     0  <0>0       -0.0206
      8  C8         5.9700   35.3740   55.6990 C.3     0  <0>0        0.1583
      9  C7         6.3460   34.0100   56.2190 C.2     0  <0>0        0.2377
     10  N1         6.1170   33.6950   57.5100 N.am    0  <0>0       -0.2788
     11  C5         5.5010   34.6700   58.4210 C.3     0  <0>0        0.0934
     12  C6         6.4790   32.3710   58.0320 C.3     0  <0>0        0.0934
     13  C4         6.3960   34.8270   59.6540 C.3     0  <0>0        0.0199
     14  C3         6.6430   33.4510   60.2780 C.3     0  <0>0        0.0034
     15  C19        5.7070   35.7340   60.6750 C.3     0  <0>0        0.0018
     16  C2         7.3640   32.5530   59.2700 C.3     0  <0>0        0.0199
     17  C1         7.6380   31.1890   59.9060 C.3     0  <0>0        0.0018
     18  O1         6.8560   33.1980   55.4780 O.2     0  <0>0       -0.2739
     19  C13        9.7160   36.3500   59.7680 C.ar    0  <0>0        0.0306
     20  C18       10.0360   36.9840   60.9680 C.ar    0  <0>0        0.0031
     21  C17       10.7940   36.3240   61.9140 C.ar    0  <0>0        0.0068
     22  C16       11.2390   35.0350   61.6710 C.ar    0  <0>0        0.0346
     23  C15       10.9240   34.4020   60.4810 C.ar    0  <0>0        0.0068
     24 Br         12.2770   34.1370   62.9710 Br      0  <0>0       -0.0490
     25  C14       10.1620   35.0510   59.5320 C.ar    0  <0>0        0.0031
@<TRIPOS>BOND
     1     7     8    1
     2     7     1    1
     3    18     9    2
     4     8     9    1
     5     9    10   am
     6     1     2    2
     7     1     6    2
     8     2     3    1
     9    10    12    1
    10    10    11    1
    11     6     5    2
    12     3     4    2
    13    12    16    1
    14    11    13    1
    15     5     4    1
    16     5    19    1
    17    16    17    1
    18    16    14    1
    19    25    19   ar
    20    25    23   ar
    21    13    14    1
    22    13    15    1
    23    19    20   ar
    24    23    22   ar
    25    20    21   ar
    26    22    21   ar
    27    22    24    1
