@<TRIPOS>MOLECULE
ZINC15230667_replica-1.pdb
 29 32 0 0 0
SMALL
GASTEIGER

@<TRIPOS>ATOM
      1  C1         2.3370   34.4510   59.2120 C.3     0  <0>0        0.0008
      2  C2         1.5000   33.2620   58.7350 C.3     0  <0>0        0.0129
      3  C3         1.9260   32.8850   57.3120 C.3     0  <0>0        0.0482
      4  C4         1.2200   31.6160   56.9060 C.ar    0  <0>0        0.0831
      5  C5         0.6620   30.7120   57.8560 C.ar    0  <0>0        0.0676
      6  C6         0.0890   29.6670   57.1530 C.ar    0  <0>0        0.0867
      7  N1         0.2980   29.9290   55.8310 N.ar    0  <0>0       -0.2277
      8  N2         1.0040   31.1350   55.7230 N.ar    0  <0>0       -0.1693
      9  C21        0.7530   30.9670   59.2970 C.2     0  <0>0        0.1757
     10  O1         0.1180   30.3300   60.1130 O.2     0  <0>0       -0.2912
     11  C22        1.7030   32.0860   59.6940 C.3     0  <0>0        0.0696
     12  C23        0.0220   33.6580   58.7290 C.3     0  <0>0        0.0008
     13  C13       -0.6100   28.5000   57.7210 C.ar    0  <0>0        0.0179
     14  C18       -2.0070   28.4330   57.6860 C.ar    0  <0>0        0.0028
     15  C17       -2.6560   27.3420   58.2180 C.ar    0  <0>0        0.0146
     16  C16       -1.9240   26.3050   58.7900 C.ar    0  <0>0        0.0479
     17  C15       -0.5340   26.3680   58.8260 C.ar    0  <0>0        0.0146
     18  C14        0.1220   27.4550   58.2920 C.ar    0  <0>0        0.0028
     19  N3        -2.5840   25.2020   59.3260 N.pl3   0  <0>0       -0.3041
     20  C19       -3.0850   25.2460   60.7020 C.3     0  <0>0        0.1122
     21  C20       -2.7780   23.9980   58.5140 C.3     0  <0>0        0.1122
     22  C7        -0.1180   29.1250   54.7600 C.ar    0  <0>0        0.1103
     23  C12       -1.0730   29.5960   53.8650 C.ar    0  <0>0        0.1599
     24  C11       -1.4810   28.8000   52.8100 C.ar    0  <0>0        0.0608
     25  F1        -1.6060   30.8260   54.0310 F       0  <0>0       -0.2025
     26  C10       -0.9390   27.5370   52.6460 C.ar    0  <0>0        0.1425
     27  C9         0.0120   27.0670   53.5360 C.ar    0  <0>0        0.0313
     28  F2        -1.3380   26.7610   51.6140 F       0  <0>0       -0.2041
     29  C8         0.4230   27.8580   54.5920 C.ar    0  <0>0        0.0237
@<TRIPOS>BOND
     1    28    26    1
     2    26    24   ar
     3    26    27   ar
     4    24    23   ar
     5    27    29   ar
     6    23    25    1
     7    23    22   ar
     8    29    22   ar
     9    22     7    1
    10     8     7   ar
    11     8     4   ar
    12     7     6   ar
    13     4     3    1
    14     4     5   ar
    15     6    13    1
    16     6     5   ar
    17     3     2    1
    18    14    13   ar
    19    14    15   ar
    20    13    18   ar
    21     5     9    1
    22    15    16   ar
    23    18    17   ar
    24    21    19    1
    25    12     2    1
    26     2     1    1
    27     2    11    1
    28    16    17   ar
    29    16    19    1
    30     9    11    1
    31     9    10    2
    32    19    20    1
