@<TRIPOS>MOLECULE
ZINC00538816_replica-1.pdb
 25 29 0 0 0
SMALL
GASTEIGER

@<TRIPOS>ATOM
      1  C10        0.2080   29.9380   56.5510 C.ar    0  <0>0        0.0436
      2  C11        1.0230   31.0570   56.4780 C.ar    0  <0>0        0.0854
      3  C12        1.3250   31.7680   57.6500 C.ar    0  <0>0        0.3460
      4  O2         2.0380   32.7540   57.5770 O.2     0  <0>0       -0.2445
      5  O3         0.8570   31.3890   58.8500 O.2     0  <0>0       -0.4210
      6  C13        0.0630   30.3070   58.9990 C.ar    0  <0>0        0.1484
      7  C14       -0.2960   29.5400   57.8800 C.ar    0  <0>0        0.0375
      8  C15       -1.1170   28.4250   58.0330 C.ar    0  <0>0       -0.0014
      9  C16       -1.5750   28.0750   59.2880 C.ar    0  <0>0       -0.0259
     10  C17       -1.2190   28.8320   60.3940 C.ar    0  <0>0       -0.0231
     11  C18       -0.4060   29.9400   60.2520 C.ar    0  <0>0        0.0330
     12  C19       -1.8480   28.2390   61.6380 C.3     0  <0>0        0.0265
     13  C20       -2.9700   27.3130   61.1230 C.3     0  <0>0        0.0093
     14  C21       -2.4640   26.9280   59.7170 C.3     0  <0>0        0.0264
     15  C9        -0.1380   29.1700   55.3450 C.ar    0  <0>0        0.1416
     16  C2        -0.9500   29.6050   54.3460 C.ar    0  <0>0        0.0157
     17  C1        -1.6510   30.9370   54.2640 C.3     0  <0>0        0.0343
     18  C3        -1.0040   28.5210   53.3670 C.ar    0  <0>0        0.0358
     19  C8        -0.1910   27.4970   53.8860 C.ar    0  <0>0        0.1451
     20  C4        -1.6540   28.3480   52.1420 C.ar    0  <0>0        0.0325
     21  C7        -0.0430   26.3160   53.1680 C.ar    0  <0>0        0.0398
     22  O1         0.3040   27.9270   55.0640 O.2     0  <0>0       -0.4538
     23  C6        -0.6890   26.1570   51.9610 C.ar    0  <0>0        0.0328
     24  C5        -1.4930   27.1680   51.4470 C.ar    0  <0>0        0.1403
     25  F1        -2.1180   26.9950   50.2630 F       0  <0>0       -0.2042
@<TRIPOS>BOND
     1    25    24    1
     2    24    23   ar
     3    24    20   ar
     4    23    21   ar
     5    20    18   ar
     6    21    19   ar
     7    18    19   ar
     8    18    16   ar
     9    19    22   ar
    10    17    16    1
    11    16    15   ar
    12    22    15   ar
    13    15     1    1
    14     2     1   ar
    15     2     3   ar
    16     1     7   ar
    17     4     3    2
    18     3     5   ar
    19     7     8   ar
    20     7     6   ar
    21     8     9   ar
    22     5     6   ar
    23     6    11   ar
    24     9    14    1
    25     9    10   ar
    26    14    13    1
    27    11    10   ar
    28    10    12    1
    29    13    12    1
