@<TRIPOS>MOLECULE
ZINC40364965_replica-1.pdb
 20 21 0 0 0
SMALL
GASTEIGER

@<TRIPOS>ATOM
      1  C5        -0.0200   29.3950   54.9240 C.3     0  <0>0        0.1402
      2  C6         0.8400   28.3530   54.1810 C.3     0  <0>0        0.0305
      3  C7         0.0320   27.0940   54.0180 C.3     0  <0>0        0.0025
      4  C8        -0.6990   27.0350   52.6620 C.3     0  <0>0        0.0001
      5  C9        -1.3230   28.3850   52.2600 C.3     0  <0>0        0.0001
      6  C10       -1.9820   29.0830   53.4190 C.3     0  <0>0        0.0025
      7  C11       -0.9660   30.0630   54.0430 C.3     0  <0>0        0.0305
      8  C12       -0.7650   28.7170   55.9980 C.1     0  <0>0        0.0875
      9  N2        -1.3390   28.1930   56.8250 N.1     0  <0>0       -0.1945
     10  N1         0.8630   30.4000   55.5220 N.3     0  <0>0       -0.1683
     11  H3         1.7650   30.5140   55.1850 H       0  <0>0        0.1499
     12  S2         0.3190   31.3410   56.7720 S.O2    0  <0>0        0.0667
     13  O1         0.7710   30.7260   57.9700 O.2     0  <0>0       -0.1525
     14  O2        -1.0560   31.5980   56.5180 O.2     0  <0>0       -0.1525
     15  C4         1.1500   32.8900   56.6560 C.ar    0  <0>0        0.1522
     16  C1         0.6970   34.1270   56.9750 C.ar    0  <0>0        0.0280
     17  C2         1.5350   35.2130   56.8000 C.ar    0  <0>0        0.0199
     18  C3         2.7850   35.0080   56.3150 C.ar    0  <0>0        0.0882
     19  S1         2.8060   33.2370   56.0890 S.2     0  <0>0       -0.0557
     20 Cl          4.0380   36.1670   55.9960 Cl      0  <0>0       -0.0751
@<TRIPOS>BOND
     1     5     4    1
     2     5     6    1
     3     4     3    1
     4     6     7    1
     5     3     2    1
     6     7     1    1
     7     2     1    1
     8     1    10    1
     9     1     8    1
    10    11    10    1
    11    10    12    1
    12    20    18    1
    13     8     9    3
    14    19    18   ar
    15    19    15   ar
    16    18    17   ar
    17    14    12    2
    18    15    12    1
    19    15    16   ar
    20    12    13    2
    21    17    16   ar
