@<TRIPOS>MOLECULE
ZINC00132961_replica-1.pdb
 20 21 0 0 0
SMALL
GASTEIGER

@<TRIPOS>ATOM
      1  C8        11.2590   35.7900   62.2200 C.3     0  <0>0        0.2805
      2  O2        12.3290   34.9800   61.7310 O.3     0  <0>0       -0.4665
      3  C5        12.5280   33.7820   62.3450 C.ar    0  <0>0        0.1394
      4  C4        11.4680   32.9050   62.5160 C.ar    0  <0>0        0.0400
      5  C3        11.6700   31.6900   63.1400 C.ar    0  <0>0        0.0400
      6  C2        12.9350   31.3470   63.5960 C.ar    0  <0>0        0.1389
      7  C7        13.9950   32.2240   63.4250 C.ar    0  <0>0        0.0400
      8  C6        13.7930   33.4400   62.8010 C.ar    0  <0>0        0.0400
      9  O1        13.1350   30.1490   64.2100 O.3     0  <0>0       -0.4714
     10  C1        12.0420   29.2300   64.2070 C.3     0  <0>0        0.2525
     11  C9        10.2410   35.9930   61.1280 C.2     0  <0>0        0.2467
     12  O3        10.4320   35.5220   60.0270 O.2     0  <0>0       -0.2802
     13  S1         8.8160   36.8880   61.4410 S.3     0  <0>0       -0.0465
     14  C10        8.3180   37.2590   59.7920 C.ar    0  <0>0        0.0323
     15  C15        8.8760   38.3400   59.1240 C.ar    0  <0>0        0.0074
     16  C14        8.4840   38.6290   57.8310 C.ar    0  <0>0        0.0119
     17  C13        7.5360   37.8420   57.2020 C.ar    0  <0>0        0.0577
     18  C12        6.9780   36.7630   57.8670 C.ar    0  <0>0        0.0119
     19 Cl          7.0450   38.2070   55.5780 Cl      0  <0>0       -0.0822
     20  C11        7.3700   36.4670   59.1560 C.ar    0  <0>0        0.0074
@<TRIPOS>BOND
     1    19    17    1
     2    17    16   ar
     3    17    18   ar
     4    16    15   ar
     5    18    20   ar
     6    15    14   ar
     7    20    14   ar
     8    14    13    1
     9    12    11    2
    10    11    13    1
    11    11     1    1
    12     2     1    1
    13     2     3    1
    14     3     4   ar
    15     3     8   ar
    16     4     5   ar
    17     8     7   ar
    18     5     6   ar
    19     7     6   ar
    20     6     9    1
    21    10     9    1
