@<TRIPOS>MOLECULE
ZINC25158404_replica-1.pdb
 28 29 0 0 0
SMALL
GASTEIGER

@<TRIPOS>ATOM
      1  C1         0.5950   27.1600   57.9380 C.3     0  <0>0        0.0313
      2  C2        -0.0920   28.5250   57.8500 C.3     0  <0>0        0.1511
      3  C3         0.8340   29.5880   58.3830 C.2     0  <0>0        0.2406
      4  O1         2.0000   29.3290   58.5920 O.2     0  <0>0       -0.2733
      5  N1         0.3650   30.8280   58.6280 N.am    0  <0>0       -0.3009
      6  H6        -0.5670   31.0360   58.4600 H       0  <0>0        0.1497
      7  C4         1.2650   31.8620   59.1460 C.3     0  <0>0        0.0940
      8  C5         0.6790   32.4540   60.4020 C.ar    0  <0>0       -0.0045
      9  C10        0.3210   33.7880   60.4350 C.ar    0  <0>0       -0.0027
     10  C9        -0.2220   34.3310   61.5850 C.ar    0  <0>0       -0.0003
     11  C8        -0.3980   33.5390   62.7060 C.ar    0  <0>0       -0.0000
     12  C7        -0.0350   32.2060   62.6740 C.ar    0  <0>0       -0.0003
     13  C6         0.5040   31.6630   61.5230 C.ar    0  <0>0       -0.0027
     14  C11        1.4380   32.9610   58.0960 C.3     0  <0>0        0.0222
     15  C12        2.8490   32.8890   57.5100 C.3     0  <0>0        0.0020
     16  C13        0.4120   32.7650   56.9790 C.3     0  <0>0        0.0020
     17  N2        -0.4180   28.8170   56.4520 N.am    0  <0>0       -0.2640
     18  C14       -1.7020   28.8010   56.0420 C.2     0  <0>0        0.4023
     19  O2        -2.5880   28.5430   56.8310 O.2     0  <0>0       -0.2264
     20  H19        0.2900   29.0230   55.8210 H       0  <0>0        0.1532
     21  O3        -2.0010   29.0700   54.7570 O.3     0  <0>0       -0.4297
     22  C15       -0.9130   29.1050   53.8320 C.3     0  <0>0        0.2367
     23  C16       -0.9780   27.8960   52.9340 C.ar    0  <0>0        0.0213
     24  C21       -1.7050   27.9460   51.7590 C.ar    0  <0>0       -0.0007
     25  C20       -1.7600   26.8390   50.9330 C.ar    0  <0>0       -0.0002
     26  C19       -1.0980   25.6780   51.2880 C.ar    0  <0>0       -0.0000
     27  C18       -0.3770   25.6260   52.4650 C.ar    0  <0>0       -0.0002
     28  C17       -0.3170   26.7350   53.2890 C.ar    0  <0>0       -0.0007
@<TRIPOS>BOND
     1    25    26   ar
     2    25    24   ar
     3    26    27   ar
     4    24    23   ar
     5    27    28   ar
     6    23    28   ar
     7    23    22    1
     8    22    21    1
     9    21    18    1
    10    20    17    1
    11    18    17   am
    12    18    19    2
    13    17     2    1
    14    16    14    1
    15    15    14    1
    16     2     1    1
    17     2     3    1
    18    14     7    1
    19     3     4    2
    20     3     5   am
    21     6     5    1
    22     5     7    1
    23     7     8    1
    24     8     9   ar
    25     8    13   ar
    26     9    10   ar
    27    13    12   ar
    28    10    11   ar
    29    12    11   ar
