@<TRIPOS>MOLECULE
ZINC12921354_replica-1.pdb
 27 31 0 0 0
SMALL
GASTEIGER

@<TRIPOS>ATOM
      1  C10       -1.7030   30.1700   56.0180 C.2     0  <0>0        0.1800
      2  C11       -1.6830   29.3510   57.1750 C.3     0  <0>0        0.1425
      3  C12       -2.4610   28.1930   57.2770 C.2     0  <0>0       -0.0110
      4  C13       -2.3980   27.4400   58.4130 C.2     0  <0>0       -0.0036
      5  C14       -1.5670   27.8030   59.4680 C.2     0  <0>0        0.0020
      6  C15       -0.7920   28.9220   59.3970 C.2     0  <0>0        0.0293
      7  C16       -0.8310   29.7210   58.2450 C.2     0  <0>0        0.1331
      8  N2        -0.0900   30.8310   58.1260 N.2     0  <0>0       -0.3434
      9  C17       -0.1500   31.5600   57.0280 C.1     0  <0>0        0.1400
     10  N3        -0.9320   31.2470   55.9970 N.2     0  <0>0       -0.3286
     11  N1        -2.5080   29.8570   54.9440 N.pl3   0  <0>0       -0.3084
     12  H10       -3.4440   29.6390   55.0850 H       0  <0>0        0.1491
     13  C9        -1.9540   29.8540   53.5880 C.3     0  <0>0        0.0936
     14  C4        -1.3350   28.5080   53.2780 C.ar    0  <0>0       -0.0085
     15  C3        -0.5240   27.6930   54.0490 C.ar    0  <0>0       -0.0030
     16  C5        -1.6980   28.1090   52.0050 C.ar    0  <0>0       -0.0245
     17  C2        -0.0680   26.4900   53.5480 C.ar    0  <0>0       -0.0003
     18  C1        -0.4310   26.0910   52.2740 C.ar    0  <0>0       -0.0003
     19  C6        -1.2440   26.9000   51.5050 C.ar    0  <0>0       -0.0045
     20  C7        -2.5850   29.1610   51.3730 C.3     0  <0>0        0.0281
     21  C8        -3.0800   30.0310   52.5480 C.3     0  <0>0        0.0288
     22  C18        0.6880   32.7800   56.9390 C.ar    0  <0>0        0.1047
     23  C22        1.9150   32.7500   56.2790 C.ar    0  <0>0        0.1109
     24  N4         2.6600   33.8330   56.1990 N.ar    0  <0>0       -0.2416
     25  C21        2.2830   34.9790   56.7330 C.ar    0  <0>0        0.0989
     26  C20        1.0790   35.0900   57.4040 C.ar    0  <0>0        0.0214
     27  C19        0.2580   33.9810   57.5110 C.ar    0  <0>0        0.0152
@<TRIPOS>BOND
     1    20    16    1
     2    20    21    1
     3    19    16   ar
     4    19    18   ar
     5    16    14   ar
     6    18    17   ar
     7    21    13    1
     8    14    13    1
     9    14    15   ar
    10    17    15   ar
    11    13    11    1
    12    11    12    1
    13    11     1    1
    14    10     1    2
    15    10     9    2
    16     1     2    1
    17    24    23   ar
    18    24    25   ar
    19    23    22   ar
    20    25    26   ar
    21    22     9    1
    22    22    27   ar
    23     9     8    2
    24     2     3    1
    25     2     7    1
    26     3     4    2
    27    26    27   ar
    28     8     7    2
    29     7     6    1
    30     4     5    1
    31     6     5    2
