@<TRIPOS>MOLECULE
ZINC37059803_replica-1.pdb
 22 23 0 0 0
SMALL
GASTEIGER

@<TRIPOS>ATOM
      1  N2         0.3620   28.9880   55.6840 N.pl3   0  <0>0       -0.3327
      2  H8         1.0290   29.6930   55.6820 H       0  <0>0        0.1468
      3  C5        -0.2030   28.5570   54.4810 C.ar    0  <0>0        0.0673
      4  C4         0.1650   27.3320   53.9390 C.ar    0  <0>0        0.0157
      5  C3        -0.3960   26.9090   52.7510 C.ar    0  <0>0       -0.0029
      6  C2        -1.3220   27.7030   52.1000 C.ar    0  <0>0       -0.0201
      7  C1        -1.9330   27.2380   50.8020 C.3     0  <0>0        0.0311
      8  C7        -1.6860   28.9250   52.6340 C.ar    0  <0>0        0.0211
      9  C6        -1.1330   29.3520   53.8250 C.ar    0  <0>0        0.1555
     10  N1        -1.5280   30.6570   54.3990 N.pl3   0  <0>0        0.0589
     11  O1        -2.6970   30.9080   54.5860 O.2     0  <0>0       -0.1261
     12  O2        -0.6830   31.4740   54.6820 O.2     0  <0>0       -0.1261
     13  C8        -0.0520   28.3750   56.9490 C.3     0  <0>0        0.0695
     14  C9        -1.5640   28.1400   56.9300 C.3     0  <0>0        0.0212
     15  C10        0.6700   27.0380   57.1270 C.3     0  <0>0        0.0242
     16  C11       -0.2850   26.0230   57.7600 C.3     0  <0>0        0.0280
     17  C12       -0.0410   24.6630   57.1600 C.ar    0  <0>0       -0.0221
     18  C17        0.4850   24.5540   55.8850 C.ar    0  <0>0       -0.0043
     19  C16        0.7130   23.3060   55.3360 C.ar    0  <0>0       -0.0003
     20  C15        0.4070   22.1660   56.0580 C.ar    0  <0>0       -0.0000
     21  C14       -0.1240   22.2760   57.3300 C.ar    0  <0>0       -0.0003
     22  C13       -0.3480   23.5250   57.8800 C.ar    0  <0>0       -0.0043
@<TRIPOS>BOND
     1     7     6    1
     2     6     8   ar
     3     6     5   ar
     4     8     9   ar
     5     5     4   ar
     6     9    10    1
     7     9     3   ar
     8     4     3   ar
     9    10    11    2
    10    10    12    2
    11     3     1    1
    12    19    18   ar
    13    19    20   ar
    14     2     1    1
    15     1    13    1
    16    18    17   ar
    17    20    21   ar
    18    14    13    1
    19    13    15    1
    20    15    16    1
    21    17    16    1
    22    17    22   ar
    23    21    22   ar
