@<TRIPOS>MOLECULE
ZINC62541936_replica-1.pdb
 20 22 0 0 0
SMALL
GASTEIGER

@<TRIPOS>ATOM
      1  C3         0.0190   26.2150   53.5320 C.ar    0  <0>0        0.0130
      2  C4        -0.3390   25.3900   52.4820 C.ar    0  <0>0       -0.0012
      3  C5        -1.1360   25.8690   51.4610 C.ar    0  <0>0        0.0011
      4  C6        -1.5770   27.1800   51.4820 C.ar    0  <0>0        0.0174
      5  C7        -1.2210   28.0110   52.5320 C.ar    0  <0>0        0.0789
      6  C8        -0.4250   27.5280   53.5670 C.ar    0  <0>0        0.1478
      7  O1        -0.0790   28.3280   54.6100 O.3     0  <0>0       -0.4721
      8  C9        -0.1650   29.7420   54.4210 C.3     0  <0>0        0.2076
      9  C10       -1.5390   30.0810   53.8290 C.3     0  <0>0        0.1360
     10  N1        -1.6630   29.3430   52.5560 N.pl3   0  <0>0       -0.3271
     11  H12       -2.0460   29.7590   51.7680 H       0  <0>0        0.1470
     12  C11        0.0020   30.4400   55.7470 C.ar    0  <0>0        0.0189
     13  C16        0.1350   29.6970   56.9060 C.ar    0  <0>0        0.0001
     14  C15        0.2930   30.3370   58.1220 C.ar    0  <0>0        0.0112
     15  C14        0.3090   31.7190   58.1790 C.ar    0  <0>0        0.0577
     16  C13        0.1710   32.4610   57.0200 C.ar    0  <0>0        0.0112
     17 Cl          0.5010   32.5210   59.7060 Cl      0  <0>0       -0.0822
     18  C12        0.0180   31.8210   55.8050 C.ar    0  <0>0        0.0001
     19  C2         0.8890   25.6850   54.6440 C.3     0  <0>0        0.0295
     20  C1         0.5710   24.2070   54.8790 C.3     0  <0>0        0.0051
@<TRIPOS>BOND
     1     3     4   ar
     2     3     2   ar
     3     4     5   ar
     4    11    10    1
     5     2     1   ar
     6     5    10    1
     7     5     6   ar
     8    10     9    1
     9     1     6   ar
    10     1    19    1
    11     6     7    1
    12     9     8    1
    13     8     7    1
    14     8    12    1
    15    19    20    1
    16    12    18   ar
    17    12    13   ar
    18    18    16   ar
    19    13    14   ar
    20    16    15   ar
    21    14    15   ar
    22    15    17    1
