@<TRIPOS>MOLECULE
ZINC52098453_replica-1.pdb
 22 23 0 0 0
SMALL
GASTEIGER

@<TRIPOS>ATOM
      1  N1         5.8990   36.7530   58.7640 N.3     0  <0>0       -0.2925
      2  H12        5.1500   37.4100   58.9240 H       0  <0>0        0.1236
      3  C4         5.3710   35.4350   58.3860 C.3     0  <0>0        0.0829
      4  C2         5.5600   34.4580   59.5480 C.3     0  <0>0        0.0191
      5  C1         6.5590   33.3710   59.1450 C.3     0  <0>0        0.0017
      6  C3         6.0950   35.2130   60.7670 C.3     0  <0>0        0.0017
      7  C5         3.9030   35.5550   58.0650 C.ar    0  <0>0        0.0215
      8  S1         3.1190   35.9020   56.4990 S.2     0  <0>0       -0.0895
      9  C8         1.4220   35.8530   57.0510 C.ar    0  <0>0        0.0352
     10  C7         1.5650   35.5870   58.3720 C.ar    0  <0>0        0.0072
     11  C6         2.8360   35.4350   58.8920 C.ar    0  <0>0        0.0040
     12  C9         6.8330   37.2560   57.7490 C.3     0  <0>0        0.1003
     13  C10        7.9710   38.0150   58.4340 C.3     0  <0>0        0.1215
     14  C11        8.7890   38.7660   57.3800 C.3     0  <0>0        0.0353
     15  C12        8.8620   37.0400   59.1590 C.ar    0  <0>0        0.0030
     16  C17        9.3470   37.3490   60.4160 C.ar    0  <0>0       -0.0020
     17  C16       10.1590   36.4520   61.0830 C.ar    0  <0>0       -0.0002
     18  C15       10.4940   35.2500   60.4900 C.ar    0  <0>0       -0.0000
     19  C14       10.0140   34.9420   59.2310 C.ar    0  <0>0       -0.0002
     20  C13        9.1980   35.8380   58.5650 C.ar    0  <0>0       -0.0020
     21  O1         7.4260   38.9500   59.3680 O.3     0  <0>0       -0.3813
     22  H23        6.7870   38.5630   59.9830 H       0  <0>0        0.2107
@<TRIPOS>BOND
     1     8     9   ar
     2     8     7   ar
     3     9    10   ar
     4    14    13    1
     5    12    13    1
     6    12     1    1
     7     7     3    1
     8     7    11   ar
     9    10    11   ar
    10     3     1    1
    11     3     4    1
    12    13    15    1
    13    13    21    1
    14    20    15   ar
    15    20    19   ar
    16     1     2    1
    17     5     4    1
    18    15    16   ar
    19    19    18   ar
    20    21    22    1
    21     4     6    1
    22    16    17   ar
    23    18    17   ar
