@<TRIPOS>MOLECULE
ZINC21230769_replica-1.pdb
 35 39 0 0 0
SMALL
GASTEIGER

@<TRIPOS>ATOM
      1  C9         6.6990   36.5630   58.1370 C.3     0  <0>0        0.1186
      2  C10        7.8130   36.0920   59.0420 C.2     0  <0>0        0.0436
      3  C11        8.8110   35.2640   58.6980 C.2     0  <0>0        0.0262
      4  C12        9.8500   34.8460   59.7260 C.3     0  <0>0        0.0458
      5  C13       10.0900   35.9840   60.7160 C.3     0  <0>0        0.0357
      6  C14        8.7560   36.2880   61.4080 C.3     0  <0>0        0.0736
      7  C15        7.7350   36.6090   60.3580 C.2     0  <0>0        0.1722
      8  O2         6.8070   37.3390   60.6460 O.2     0  <0>0       -0.2916
      9  N1         8.9970   34.7330   57.4620 N.pl3   0  <0>0       -0.3150
     10  C23        8.0000   34.1370   56.6970 C.ar    0  <0>0        0.0614
     11  C24        8.0350   32.7990   56.3470 C.ar    0  <0>0        0.0158
     12  C25        7.0330   32.2830   55.5420 C.ar    0  <0>0        0.0014
     13  C26        6.0100   33.0970   55.0940 C.ar    0  <0>0        0.0013
     14  C27        5.9640   34.4310   55.4600 C.ar    0  <0>0        0.0156
     15  C28        6.9530   34.9470   56.2830 C.ar    0  <0>0        0.0586
     16  N2         6.9040   36.2630   56.7360 N.pl3   0  <0>0       -0.3262
     17  H23        9.9950   34.7560   56.9980 H       0  <0>0        0.1520
     18  H28        7.0230   37.0800   56.0110 H       0  <0>0        0.1474
     19  C6         5.4130   35.9130   58.5830 C.ar    0  <0>0       -0.0001
     20  C5         4.2000   36.4860   58.2490 C.ar    0  <0>0        0.0008
     21  C4         3.0200   35.8930   58.6560 C.ar    0  <0>0        0.0366
     22  C3         3.0540   34.7230   59.4010 C.ar    0  <0>0        0.1385
     23  C8         4.2730   34.1500   59.7330 C.ar    0  <0>0        0.0366
     24  C7         5.4490   34.7440   59.3190 C.ar    0  <0>0        0.0008
     25  O1         1.8950   34.1380   59.8030 O.3     0  <0>0       -0.4755
     26  C2         0.6940   34.5630   59.1550 C.3     0  <0>0        0.2055
     27  C1         0.2200   33.4730   58.1930 C.3     0  <0>0        0.0512
     28  C16       11.1120   35.5640   61.7400 C.ar    0  <0>0       -0.0187
     29  C21       11.6850   34.3100   61.6690 C.ar    0  <0>0        0.0326
     30  C20       12.6260   33.9250   62.6140 C.ar    0  <0>0        0.1384
     31  C19       12.9930   34.8020   63.6230 C.ar    0  <0>0        0.0369
     32  C18       12.4130   36.0540   63.6930 C.ar    0  <0>0        0.0028
     33  C17       11.4750   36.4360   62.7520 C.ar    0  <0>0       -0.0041
     34  O3        13.1930   32.6910   62.5460 O.3     0  <0>0       -0.4714
     35  C22       14.2530   32.4120   63.4620 C.3     0  <0>0        0.2525
@<TRIPOS>BOND
     1    13    14   ar
     2    13    12   ar
     3    14    15   ar
     4    12    11   ar
     5    18    16    1
     6    15    10   ar
     7    15    16    1
     8    11    10   ar
     9    10     9    1
    10    16     1    1
    11    17     9    1
    12     9     3    1
    13     1    19    1
    14     1     2    1
    15    27    26    1
    16    20    19   ar
    17    20    21   ar
    18    19    24   ar
    19    21    22   ar
    20     3     2    2
    21     3     4    1
    22     2     7    1
    23    26    25    1
    24    24    23   ar
    25    22    23   ar
    26    22    25    1
    27     4     5    1
    28     7     8    2
    29     7     6    1
    30     5     6    1
    31     5    28    1
    32    29    28   ar
    33    29    30   ar
    34    28    33   ar
    35    34    30    1
    36    34    35    1
    37    30    31   ar
    38    33    32   ar
    39    31    32   ar
