@<TRIPOS>MOLECULE
ZINC20727614_replica-1.pdb
 27 29 0 0 0
SMALL
GASTEIGER

@<TRIPOS>ATOM
      1  C11        5.7160   35.0640   55.5090 C.2     0  <0>0        0.2293
      2  O1         5.5520   33.9520   55.0510 O.2     0  <0>0       -0.2747
      3  N2         4.9800   35.4740   56.5610 N.am    0  <0>0       -0.3040
      4  H9         5.1290   36.4820   56.9770 H       0  <0>0        0.1494
      5  C10        6.7440   35.9840   54.9030 C.3     0  <0>0        0.1401
      6  C8         7.3870   36.8050   55.9920 C.2     0  <0>0        0.1077
      7  N1         7.9870   36.2100   56.9960 N.2     0  <0>0       -0.4029
      8  C7         8.5650   36.9070   57.9640 C.2     0  <0>0        0.1565
      9  S1         8.2300   38.5820   57.4320 S.3     0  <0>0       -0.0751
     10  C9         7.3410   38.1620   55.9370 C.3     0  <0>0        0.1193
     11  C4         9.2860   36.4300   59.1630 C.ar    0  <0>0        0.0356
     12  C3         9.8860   35.1700   59.1660 C.ar    0  <0>0        0.0031
     13  C2        10.5560   34.7310   60.2880 C.ar    0  <0>0        0.0001
     14  C1        10.6340   35.5370   61.4100 C.ar    0  <0>0        0.0000
     15  C6        10.0410   36.7870   61.4150 C.ar    0  <0>0        0.0001
     16  C5         9.3720   37.2400   60.2970 C.ar    0  <0>0        0.0031
     17  C12        3.9800   34.5800   57.1490 C.3     0  <0>0        0.0898
     18  C13        3.6340   35.0600   58.5600 C.3     0  <0>0        0.0288
     19  C18        2.5810   36.1680   58.4780 C.3     0  <0>0        0.0022
     20  C17        1.3220   35.6250   57.8000 C.3     0  <0>0        0.0001
     21  C16        0.7680   34.4550   58.6150 C.3     0  <0>0        0.0000
     22  C15        1.8190   33.3470   58.6980 C.3     0  <0>0        0.0001
     23  C14        3.0790   33.8890   59.3750 C.3     0  <0>0        0.0022
     24  C19        4.8940   35.6030   59.2380 C.3     0  <0>0        0.1157
     25  C20        5.7510   34.4520   59.6990 C.2     0  <0>0        0.3649
     26  O2         6.4420   33.8590   58.9060 O.co2   0  <0>0       -0.2457
     27  O3         5.7440   34.0870   60.9900 O.co2   0  <0>0       -0.2457
@<TRIPOS>BOND
     1     5     1    1
     2     5     6    1
     3     2     1    2
     4     1     3   am
     5    10     6    1
     6    10     9    1
     7     6     7    2
     8     3     4    1
     9     3    17    1
    10     7     8    2
    11    17    18    1
    12     9     8    1
    13    20    19    1
    14    20    21    1
    15     8    11    1
    16    19    18    1
    17    18    24    1
    18    18    23    1
    19    21    22    1
    20    22    23    1
    21    26    25   ar
    22    11    12   ar
    23    11    16   ar
    24    12    13   ar
    25    24    25    1
    26    25    27   ar
    27    13    14   ar
    28    16    15   ar
    29    14    15   ar
