@<TRIPOS>MOLECULE
ZINC37086289_replica-1.pdb
 22 23 0 0 0
SMALL
GASTEIGER

@<TRIPOS>ATOM
      1  C1         6.6640   37.8640   59.7240 C.3     0  <0>0        0.0215
      2  C2         7.3660   36.5250   59.4880 C.3     0  <0>0        0.0735
      3  C3         8.8040   36.7770   59.0300 C.3     0  <0>0        0.0458
      4  C4         9.7620   36.2320   60.0570 C.ar    0  <0>0       -0.0203
      5  C9        10.3580   35.0000   59.8600 C.ar    0  <0>0       -0.0011
      6  C8        11.2410   34.5000   60.7970 C.ar    0  <0>0        0.0366
      7  C7        11.5210   35.2310   61.9430 C.ar    0  <0>0        0.1387
      8  C6        10.9160   36.4630   62.1420 C.ar    0  <0>0        0.0366
      9  C5        10.0390   36.9620   61.1990 C.ar    0  <0>0       -0.0011
     10  O1        12.3850   34.7390   62.8690 O.3     0  <0>0       -0.4714
     11  C10       13.5150   34.0130   62.3810 C.3     0  <0>0        0.2525
     12  N1         6.6490   35.7730   58.4550 N.pl3   0  <0>0       -0.3328
     13  H14        5.8650   36.1580   58.0320 H       0  <0>0        0.1468
     14  C11        7.0950   34.5010   58.0770 C.ar    0  <0>0        0.0581
     15  C16        7.3500   34.2190   56.7350 C.ar    0  <0>0        0.0612
     16  C15        7.7960   32.9590   56.3680 C.ar    0  <0>0        0.0158
     17  C14        7.9780   31.9830   57.3310 C.ar    0  <0>0        0.0014
     18  C13        7.7210   32.2610   58.6600 C.ar    0  <0>0        0.0013
     19  C12        7.2810   33.5170   59.0360 C.ar    0  <0>0        0.0156
     20  N2         7.1600   35.2080   55.7620 N.pl3   0  <0>0       -0.3031
     21  C17        8.2160   36.1900   55.5000 C.3     0  <0>0        0.1123
     22  C18        5.9060   35.2610   55.0070 C.3     0  <0>0        0.1123
@<TRIPOS>BOND
     1    22    20    1
     2    21    20    1
     3    20    15    1
     4    16    15   ar
     5    16    17   ar
     6    15    14   ar
     7    17    18   ar
     8    13    12    1
     9    14    12    1
    10    14    19   ar
    11    12     2    1
    12    18    19   ar
    13     3     2    1
    14     3     4    1
    15     2     1    1
    16     5     4   ar
    17     5     6   ar
    18     4     9   ar
    19     6     7   ar
    20     9     8   ar
    21     7     8   ar
    22     7    10    1
    23    11    10    1
