@<TRIPOS>MOLECULE
ZINC02196307_replica-1.pdb
 30 33 0 0 0
SMALL
GASTEIGER

@<TRIPOS>ATOM
      1  C8        -0.7830   30.1850   56.8700 C.ar    0  <0>0        0.0392
      2  C9        -0.3570   31.3830   57.4120 C.ar    0  <0>0        0.1019
      3  N2         0.4620   31.9700   56.5190 N.ar    0  <0>0       -0.2282
      4  N3         0.5720   31.1650   55.3820 N.ar    0  <0>0       -0.1651
      5  C10       -0.1570   30.0840   55.5460 C.ar    0  <0>0        0.1027
      6  C7        -1.6840   29.2100   57.4930 C.2     0  <0>0        0.0142
      7  C6        -1.1850   28.2520   58.3170 C.2     0  <0>0        0.0850
      8  C5        -1.8870   27.1800   59.0470 C.2     0  <0>0        0.2595
      9  S1         0.5030   27.9510   58.8220 S.3     0  <0>0       -0.0604
     10  N1        -1.1410   26.3790   59.7880 N.am    0  <0>0       -0.2458
     11  O1        -3.0940   27.0410   58.9710 O.2     0  <0>0       -0.2690
     12  C24        0.1960   26.5380   59.8700 C.2     0  <0>0        0.1212
     13  S2         1.3240   25.6140   60.7670 S.2     0  <0>0       -0.0272
     14  C3        -1.7810   25.2950   60.5370 C.3     0  <0>0        0.0811
     15  C4        -2.7620   25.8850   61.5510 C.3     0  <0>0        0.0219
     16  C2        -2.5350   24.3820   59.5680 C.3     0  <0>0        0.0202
     17  C1        -1.5480   23.4320   58.8880 C.3     0  <0>0        0.0018
     18  C11       -0.3180   28.9740   54.5780 C.ar    0  <0>0        0.0194
     19  C16       -1.1510   29.1260   53.4710 C.ar    0  <0>0        0.0012
     20  C15       -1.2960   28.0890   52.5720 C.ar    0  <0>0       -0.0042
     21  C14       -0.6160   26.9000   52.7680 C.ar    0  <0>0       -0.0218
     22  C13        0.2130   26.7440   53.8640 C.ar    0  <0>0       -0.0042
     23  C17       -0.7800   25.7720   51.7820 C.3     0  <0>0        0.0310
     24  C12        0.3700   27.7750   54.7660 C.ar    0  <0>0        0.0012
     25  C18        1.1020   33.2040   56.6990 C.ar    0  <0>0        0.0828
     26  C23        2.3990   33.3880   56.2390 C.ar    0  <0>0        0.0191
     27  C22        3.0270   34.6060   56.4180 C.ar    0  <0>0        0.0015
     28  C21        2.3650   35.6390   57.0560 C.ar    0  <0>0        0.0001
     29  C20        1.0740   35.4580   57.5150 C.ar    0  <0>0        0.0015
     30  C19        0.4380   34.2450   57.3350 C.ar    0  <0>0        0.0191
@<TRIPOS>BOND
     1    23    21    1
     2    20    21   ar
     3    20    19   ar
     4    21    22   ar
     5    19    18   ar
     6    22    24   ar
     7    18    24   ar
     8    18     5    1
     9     4     5   ar
    10     4     3   ar
    11     5     1   ar
    12    26    27   ar
    13    26    25   ar
    14    27    28   ar
    15     3    25    1
    16     3     2   ar
    17    25    30   ar
    18     1     2   ar
    19     1     6    1
    20    28    29   ar
    21    30    29   ar
    22     6     7    2
    23     7     9    1
    24     7     8    1
    25     9    12    1
    26    17    16    1
    27    11     8    2
    28     8    10   am
    29    16    14    1
    30    10    12    1
    31    10    14    1
    32    12    13    2
    33    14    15    1
