@<TRIPOS>MOLECULE
ZINC39457839_replica-1.pdb
 27 30 0 0 0
SMALL
GASTEIGER

@<TRIPOS>ATOM
      1  N1         3.4640   34.7990   57.1970 N.ar    0  <0>0       -0.1818
      2  C3         2.5070   34.2050   57.9660 C.ar    0  <0>0        0.0816
      3  C4         2.9890   34.0650   59.2250 C.ar    0  <0>0        0.0470
      4  C5         4.2860   34.5830   59.2440 C.ar    0  <0>0        0.0062
      5  C6         4.5650   35.0160   57.9720 C.ar    0  <0>0        0.1114
      6  C7         5.8720   35.5870   57.5990 C.ar    0  <0>0        0.1024
      7  C8         7.0230   34.9020   58.0620 C.ar    0  <0>0        0.0503
      8  C9         8.2830   35.4280   57.7740 C.ar    0  <0>0       -0.0120
      9  C10        8.3440   36.5900   57.0220 C.ar    0  <0>0        0.0168
     10  C11        7.1750   37.1890   56.5820 C.ar    0  <0>0        0.0986
     11  N2         5.9900   36.6860   56.8740 N.ar    0  <0>0       -0.2422
     12  C19        6.8460   33.6560   58.8030 C.2     0  <0>0        0.1746
     13  O2         7.0770   32.5990   58.2530 O.2     0  <0>0       -0.2913
     14  C20        6.3800   33.6550   60.2420 C.3     0  <0>0        0.0739
     15  C21        5.2370   34.6790   60.4040 C.3     0  <0>0        0.0366
     16 Br          2.0710   33.3050   60.6940 Br      0  <0>0       -0.0480
     17  C22        1.1410   33.7770   57.4950 C.3     0  <0>0        0.0541
     18  C12        9.5380   34.7540   58.2670 C.3     0  <0>0        0.0528
     19  C13        9.9460   35.3550   59.5880 C.ar    0  <0>0       -0.0178
     20  C18        9.4580   36.5920   59.9640 C.ar    0  <0>0       -0.0039
     21  C17        9.8290   37.1420   61.1770 C.ar    0  <0>0       -0.0003
     22  C16       10.6930   36.4570   62.0090 C.ar    0  <0>0       -0.0000
     23  C15       11.1850   35.2210   61.6320 C.ar    0  <0>0       -0.0003
     24  C14       10.8110   34.6710   60.4210 C.ar    0  <0>0       -0.0039
     25  O1         3.3380   35.1280   55.8260 O.3     0  <0>0       -0.3954
     26  C2         3.7980   34.1080   54.9380 C.3     0  <0>0        0.2365
     27  C1         4.9570   34.6470   54.0960 C.3     0  <0>0        0.0542
@<TRIPOS>BOND
     1    27    26    1
     2    26    25    1
     3    25     1    1
     4    10    11   ar
     5    10     9   ar
     6    11     6   ar
     7     9     8   ar
     8     1     2   ar
     9     1     5   ar
    10    17     2    1
    11     6     5    1
    12     6     7   ar
    13     8     7   ar
    14     8    18    1
    15     2     3   ar
    16     5     4   ar
    17     7    12    1
    18    13    12    2
    19    18    19    1
    20    12    14    1
    21     3     4   ar
    22     3    16    1
    23     4    15    1
    24    19    20   ar
    25    19    24   ar
    26    20    21   ar
    27    14    15    1
    28    24    23   ar
    29    21    22   ar
    30    23    22   ar
