@<TRIPOS>MOLECULE
ZINC38705084_replica-1.pdb
 36 40 0 0 0
SMALL
GASTEIGER

@<TRIPOS>ATOM
      1  C9         6.1980   34.7800   57.4780 C.3     0  <0>0        0.1242
      2  C10        4.8670   35.0300   56.8240 C.ar    0  <0>0        0.0408
      3  C11        3.4750   34.9100   56.8990 C.ar    0  <0>0        0.1027
      4  N1         2.9750   35.4350   55.7970 N.ar    0  <0>0       -0.1727
      5  N2         3.9120   35.8730   55.0350 N.ar    0  <0>0       -0.2716
      6  H2         3.7770   36.2980   54.1740 H       0  <0>0        0.1891
      7  C12        5.1280   35.6510   55.6180 C.ar    0  <0>0        0.1266
      8  C13        6.5790   35.8080   55.4780 C.2     0  <0>0        0.2666
      9  O1         7.1340   36.3190   54.5240 O.2     0  <0>0       -0.2683
     10  N3         7.2130   35.3050   56.5540 N.am    0  <0>0       -0.2647
     11  C21        2.7040   34.3040   58.0130 C.ar    0  <0>0        0.0488
     12  C26        2.1040   35.1210   58.9760 C.ar    0  <0>0        0.1345
     13  C25        1.3800   34.5460   60.0090 C.ar    0  <0>0        0.0324
     14  C24        1.2630   33.1720   60.0920 C.ar    0  <0>0       -0.0192
     15  C23        1.8610   32.3620   59.1430 C.ar    0  <0>0       -0.0083
     16  C27        0.4800   32.5520   61.2210 C.3     0  <0>0        0.0311
     17  C22        2.5800   32.9200   58.1060 C.ar    0  <0>0       -0.0177
     18  C28        3.2280   32.0340   57.0740 C.3     0  <0>0        0.0312
     19  O2         2.2260   36.4710   58.8970 O.3     0  <0>0       -0.5055
     20  H20        1.4640   36.9550   59.2450 H       0  <0>0        0.2922
     21  C6         6.4030   33.3020   57.6880 C.ar    0  <0>0       -0.0000
     22  C5         6.2740   32.7580   58.9520 C.ar    0  <0>0       -0.0027
     23  C4         6.4620   31.4020   59.1440 C.ar    0  <0>0       -0.0045
     24  C3         6.7780   30.5900   58.0720 C.ar    0  <0>0       -0.0222
     25  C8         6.9120   31.1330   56.8080 C.ar    0  <0>0       -0.0045
     26  C7         6.7200   32.4880   56.6160 C.ar    0  <0>0       -0.0027
     27  C2         6.9820   29.1110   58.2820 C.3     0  <0>0        0.0264
     28  C1         5.7570   28.5220   58.9860 C.3     0  <0>0        0.0050
     29  C14        8.6610   35.2840   56.7680 C.3     0  <0>0        0.1210
     30  C15        8.9720   35.7820   58.1570 C.ar    0  <0>0       -0.0022
     31  C20        8.6370   37.0740   58.5180 C.ar    0  <0>0       -0.0003
     32  C19        8.9160   37.5300   59.7910 C.ar    0  <0>0        0.0294
     33  C18        9.5410   36.6960   60.7040 C.ar    0  <0>0        0.1401
     34  C17        9.8810   35.4040   60.3390 C.ar    0  <0>0        0.0294
     35  F1         9.8190   37.1430   61.9470 F       0  <0>0       -0.2042
     36  C16        9.5950   34.9480   59.0660 C.ar    0  <0>0       -0.0003
@<TRIPOS>BOND
     1     6     5    1
     2     9     8    2
     3     5     7   ar
     4     5     4   ar
     5     8     7    1
     6     8    10   am
     7     7     2   ar
     8     4     3   ar
     9    10    29    1
    10    10     1    1
    11    26    25   ar
    12    26    21   ar
    13    29    30    1
    14    25    24   ar
    15     2     3   ar
    16     2     1    1
    17     3    11    1
    18    18    17    1
    19     1    21    1
    20    21    22   ar
    21    11    17   ar
    22    11    12   ar
    23    24    27    1
    24    24    23   ar
    25    17    15   ar
    26    30    31   ar
    27    30    36   ar
    28    27    28    1
    29    31    32   ar
    30    19    12    1
    31    19    20    1
    32    22    23   ar
    33    12    13   ar
    34    36    34   ar
    35    15    14   ar
    36    32    33   ar
    37    13    14   ar
    38    14    16    1
    39    34    33   ar
    40    33    35    1
