@<TRIPOS>MOLECULE
ZINC50491633_replica-1.pdb
 20 21 0 0 0
SMALL
GASTEIGER

@<TRIPOS>ATOM
      1  C9         6.8480   35.0890   58.1940 C.3     0  <0>0        0.0734
      2  C10        6.3020   33.6920   58.4930 C.3     0  <0>0        0.0251
      3  C11        5.5030   33.7240   59.7970 C.3     0  <0>0        0.0023
      4  C12        4.3380   34.7070   59.6570 C.3     0  <0>0        0.0002
      5  C13        4.8840   36.1050   59.3580 C.3     0  <0>0        0.0023
      6  C14        5.6830   36.0720   58.0540 C.3     0  <0>0        0.0251
      7  O1         7.6980   35.5070   59.2640 O.3     0  <0>0       -0.3631
      8  C8         8.9760   35.9830   58.8370 C.3     0  <0>0        0.1148
      9  C3         9.2880   37.3060   59.5410 C.3     0  <0>0        0.0272
     10  C4         9.3040   37.0870   61.0550 C.3     0  <0>0        0.0024
     11  C5        10.3770   36.0560   61.4100 C.3     0  <0>0        0.0002
     12  C6        10.0650   34.7330   60.7060 C.3     0  <0>0        0.0025
     13  C7        10.0490   34.9520   59.1920 C.3     0  <0>0        0.0295
     14  C2         8.2150   38.3380   59.1860 C.3     0  <0>0        0.0024
     15  C1         8.3840   38.7680   57.7270 C.3     0  <0>0        0.0001
     16  C15        7.6470   35.0570   56.8900 C.3     0  <0>0       -0.0539
     17  N1         6.8210   35.5880   55.7970 N.4     0  <0>0        0.3839
     18  C16        7.6360   36.4730   54.9540 C.3     0  <0>0       -0.1055
     19  H28        6.4680   34.8240   55.2400 H       0  <0>0       -0.0845
     20  H32        6.0470   36.1080   56.1830 H       0  <0>0       -0.0845
@<TRIPOS>BOND
     1    18    17    1
     2    19    17    1
     3    17    20    1
     4    17    16    1
     5    16     1    1
     6    15    14    1
     7     6     1    1
     8     6     5    1
     9     1     2    1
    10     1     7    1
    11     2     3    1
    12     8    13    1
    13     8     7    1
    14     8     9    1
    15    14     9    1
    16    13    12    1
    17     5     4    1
    18     9    10    1
    19     4     3    1
    20    12    11    1
    21    10    11    1
