@<TRIPOS>MOLECULE
ZINC01216277_replica-1.pdb
 29 31 0 0 0
SMALL
GASTEIGER

@<TRIPOS>ATOM
      1  C13       -0.7610   29.8200   55.2300 C.2     0  <0>0        0.1206
      2  N1         0.1170   30.7720   55.1300 N.2     0  <0>0       -0.1774
      3  N2        -0.2120   32.0750   55.5280 N.am    0  <0>0       -0.2044
      4  C14        0.3670   32.6120   56.6200 C.2     0  <0>0        0.2611
      5  O2         1.1720   31.9680   57.2590 O.2     0  <0>0       -0.2715
      6  H13       -0.8560   32.5890   55.0170 H       0  <0>0        0.1773
      7  C15        0.0130   34.0130   57.0480 C.3     0  <0>0        0.1754
      8  N3         0.8080   34.9730   56.2780 N.pl3   0  <0>0       -0.3252
      9  H16        0.4350   35.3870   55.4840 H       0  <0>0        0.1473
     10  C16        2.1040   35.2920   56.6880 C.ar    0  <0>0        0.0450
     11  C21        3.1530   35.2440   55.7780 C.ar    0  <0>0        0.0140
     12  C20        4.4350   35.5600   56.1860 C.ar    0  <0>0       -0.0030
     13  C19        4.6740   35.9250   57.4980 C.ar    0  <0>0       -0.0218
     14  C18        3.6310   35.9750   58.4050 C.ar    0  <0>0       -0.0030
     15  C22        6.0730   36.2700   57.9390 C.3     0  <0>0        0.0310
     16  C17        2.3470   35.6650   58.0030 C.ar    0  <0>0        0.0140
     17  C12       -0.4160   28.4540   54.8120 C.ar    0  <0>0        0.0546
     18  C3         0.2980   27.6090   55.6600 C.ar    0  <0>0        0.1400
     19  C4         0.6180   26.3120   55.2590 C.ar    0  <0>0        0.0369
     20  C5         0.2610   25.8310   54.0400 C.ar    0  <0>0        0.0031
     21  C6        -0.4550   26.6320   53.1330 C.ar    0  <0>0        0.0002
     22  C11       -0.8090   27.9540   53.4960 C.ar    0  <0>0        0.0045
     23  C7        -0.8300   26.1450   51.8680 C.ar    0  <0>0        0.0000
     24  C10       -1.5220   28.7530   52.5940 C.ar    0  <0>0        0.0001
     25  C9        -1.8690   28.2480   51.3760 C.ar    0  <0>0        0.0000
     26  C8        -1.5230   26.9490   51.0150 C.ar    0  <0>0        0.0000
     27  O1         0.6800   28.0490   56.8870 O.3     0  <0>0       -0.4754
     28  C2         0.1600   27.3490   58.0190 C.3     0  <0>0        0.2055
     29  C1        -1.1330   28.0220   58.4830 C.3     0  <0>0        0.0512
@<TRIPOS>BOND
     1    26    25   ar
     2    26    23   ar
     3    25    24   ar
     4    23    21   ar
     5    24    22   ar
     6    21    22   ar
     7    21    20   ar
     8    22    17   ar
     9    20    19   ar
    10    17     1    1
    11    17    18   ar
    12     6     3    1
    13     2     1    2
    14     2     3    1
    15    19    18   ar
    16     9     8    1
    17     3     4   am
    18    18    27    1
    19    11    12   ar
    20    11    10   ar
    21    12    13   ar
    22     8    10    1
    23     8     7    1
    24     4     7    1
    25     4     5    2
    26    10    16   ar
    27    27    28    1
    28    13    15    1
    29    13    14   ar
    30    16    14   ar
    31    28    29    1
