@<TRIPOS>MOLECULE
ZINC08415898_replica-1.pdb
 26 29 0 0 0
SMALL
GASTEIGER

@<TRIPOS>ATOM
      1  N1         0.8960   32.0520   58.2170 N.am    0  <0>0       -0.1977
      2  C8         0.5020   31.6630   57.0160 C.2     0  <0>0        0.2647
      3  O1         0.6640   32.3470   56.0280 O.2     0  <0>0       -0.2713
      4  C9        -0.1660   30.2960   56.9590 C.3     0  <0>0        0.2048
      5  S1        -0.0940   29.8370   58.7360 S.3     0  <0>0       -0.0279
      6  C10        0.7220   31.3130   59.3280 C.2     0  <0>0        0.2877
      7  O2         1.0450   31.5850   60.4670 O.2     0  <0>0       -0.2619
      8  N2         0.5990   29.3580   56.1340 N.pl3   0  <0>0       -0.3183
      9  H9         1.4960   29.1000   56.3970 H       0  <0>0        0.1480
     10  C11        0.0360   28.8360   54.9680 C.ar    0  <0>0        0.0455
     11  C20        0.3080   27.5350   54.6040 C.ar    0  <0>0        0.0143
     12  C19       -0.2590   27.0110   53.4310 C.ar    0  <0>0        0.0012
     13  C14       -1.1020   27.8320   52.6390 C.ar    0  <0>0        0.0001
     14  C18       -0.0060   25.6890   53.0260 C.ar    0  <0>0        0.0000
     15  C13       -1.3580   29.1550   53.0400 C.ar    0  <0>0        0.0013
     16  C15       -1.6680   27.3060   51.4650 C.ar    0  <0>0        0.0000
     17  C12       -0.8020   29.6370   54.1820 C.ar    0  <0>0        0.0143
     18  C16       -1.4020   26.0200   51.1050 C.ar    0  <0>0        0.0000
     19  C17       -0.5730   25.2140   51.8840 C.ar    0  <0>0        0.0000
     20  C7         1.5230   33.3000   58.3390 C.ar    0  <0>0        0.0575
     21  C2         2.8970   33.4070   58.1640 C.ar    0  <0>0       -0.0077
     22  C1         3.7140   32.1830   57.8420 C.3     0  <0>0        0.0323
     23  C3         3.5120   34.6380   58.2830 C.ar    0  <0>0       -0.0030
     24  C4         2.7630   35.7620   58.5770 C.ar    0  <0>0       -0.0002
     25  C5         1.3950   35.6580   58.7530 C.ar    0  <0>0        0.0013
     26  C6         0.7730   34.4290   58.6340 C.ar    0  <0>0        0.0150
@<TRIPOS>BOND
     1    18    16   ar
     2    18    19   ar
     3    16    13   ar
     4    19    14   ar
     5    13    15   ar
     6    13    12   ar
     7    14    12   ar
     8    15    17   ar
     9    12    11   ar
    10    17    10   ar
    11    11    10   ar
    12    10     8    1
    13     3     2    2
    14     8     9    1
    15     8     4    1
    16     4     2    1
    17     4     5    1
    18     2     1   am
    19    22    21    1
    20    21    23   ar
    21    21    20   ar
    22     1    20    1
    23     1     6   am
    24    23    24   ar
    25    20    26   ar
    26    24    25   ar
    27    26    25   ar
    28     5     6    1
    29     6     7    2
