@<TRIPOS>MOLECULE
ZINC13172554_replica-1.pdb
 29 31 0 0 0
SMALL
GASTEIGER

@<TRIPOS>ATOM
      1  C14        7.6030   37.0060   59.1720 C.2     0  <0>0        0.2271
      2  O1         6.6850   36.8180   59.9430 O.2     0  <0>0       -0.2747
      3  N1         7.4960   36.6100   57.8880 N.am    0  <0>0       -0.3013
      4  H13        8.1990   36.8230   57.2550 H       0  <0>0        0.1497
      5  C13        8.8620   37.6820   59.6490 C.3     0  <0>0        0.1113
      6  C10        9.7500   36.6710   60.3260 C.ar    0  <0>0       -0.0131
      7  C9         9.9990   35.4540   59.7160 C.ar    0  <0>0       -0.0038
      8  C8        10.8160   34.5260   60.3280 C.ar    0  <0>0       -0.0003
      9  C7        11.3840   34.8130   61.5680 C.ar    0  <0>0       -0.0000
     10  C12       11.1320   36.0400   62.1780 C.ar    0  <0>0       -0.0003
     11  C11       10.3170   36.9620   61.5530 C.ar    0  <0>0       -0.0038
     12  C4        12.2600   33.8170   62.2340 C.ar    0  <0>0       -0.0000
     13  C3        13.6210   34.0730   62.3860 C.ar    0  <0>0       -0.0000
     14  C2        14.4310   33.1440   63.0070 C.ar    0  <0>0        0.0000
     15  C1        13.8920   31.9600   63.4780 C.ar    0  <0>0        0.0000
     16  C6        12.5420   31.7000   63.3310 C.ar    0  <0>0        0.0000
     17  C5        11.7220   32.6250   62.7150 C.ar    0  <0>0       -0.0000
     18  C15        6.3170   35.8590   57.4490 C.3     0  <0>0        0.1061
     19  C16        5.9330   36.2940   56.0340 C.3     0  <0>0        0.1381
     20  C17        7.0490   37.1140   55.4400 C.2     0  <0>0        0.3669
     21  O2         7.8990   36.5800   54.7670 O.co2   0  <0>0       -0.2456
     22  O3         7.1000   38.4370   55.6580 O.co2   0  <0>0       -0.2456
     23  C18        6.6300   34.3850   57.4550 C.ar    0  <0>0        0.0066
     24  C23        5.6650   33.4740   57.8450 C.ar    0  <0>0        0.0552
     25  C22        5.9530   32.1210   57.8490 C.ar    0  <0>0        0.0111
     26 Cl          4.0920   34.0290   58.3280 Cl      0  <0>0       -0.0825
     27  C21        7.2050   31.6790   57.4650 C.ar    0  <0>0        0.0008
     28  C20        8.1690   32.5910   57.0740 C.ar    0  <0>0       -0.0002
     29  C19        7.8800   33.9420   57.0660 C.ar    0  <0>0       -0.0018
@<TRIPOS>BOND
     1    21    20   ar
     2    20    22   ar
     3    20    19    1
     4    19    18    1
     5    29    28   ar
     6    29    23   ar
     7    28    27   ar
     8     4     3    1
     9    18    23    1
    10    18     3    1
    11    23    24   ar
    12    27    25   ar
    13    24    25   ar
    14    24    26    1
    15     3     1   am
    16     1     5    1
    17     1     2    2
    18     5     6    1
    19     7     6   ar
    20     7     8   ar
    21     6    11   ar
    22     8     9   ar
    23    11    10   ar
    24     9    10   ar
    25     9    12    1
    26    12    13   ar
    27    12    17   ar
    28    13    14   ar
    29    17    16   ar
    30    14    15   ar
    31    16    15   ar
