@<TRIPOS>MOLECULE
ZINC36580732_replica-1.pdb
 25 24 0 0 0
SMALL
GASTEIGER

@<TRIPOS>ATOM
      1  C6         8.8190   34.6630   60.5370 C.3     0  <0>0        0.1516
      2  C5        10.2270   34.1630   60.2090 C.3     0  <0>0        0.0292
      3  C4        11.2440   34.8810   61.0980 C.3     0  <0>0        0.0022
      4  C3        11.8390   33.8870   62.0980 C.3     0  <0>0        0.0001
      5  C2        13.3450   34.1250   62.2190 C.3     0  <0>0        0.0000
      6  C1        13.9840   32.9700   62.9920 C.3     0  <0>0        0.0000
      7  C7         7.8190   33.5710   60.2540 C.2     0  <0>0        0.2405
      8  O1         6.6610   33.7090   60.5860 O.2     0  <0>0       -0.2733
      9  N1         8.2120   32.4430   59.6300 N.am    0  <0>0       -0.3061
     10  H13        9.1380   32.3330   59.3640 H       0  <0>0        0.1494
     11  C8         7.2400   31.3820   59.3550 C.3     0  <0>0        0.0569
     12  C9         6.0420   31.9700   58.6060 C.3     0  <0>0        0.0196
     13  C10        7.8960   30.2990   58.4950 C.3     0  <0>0        0.0196
     14  C11        6.7660   30.7700   60.6740 C.3     0  <0>0        0.0196
     15  N2         8.5120   35.8340   59.7120 N.am    0  <0>0       -0.2762
     16  C12        8.5580   35.7420   58.3680 C.2     0  <0>0        0.2258
     17  O2         8.8640   34.6940   57.8420 O.2     0  <0>0       -0.2749
     18  C13        8.2280   36.9430   57.5200 C.3     0  <0>0        0.0853
     19  C14        7.3180   36.5190   56.3660 C.3     0  <0>0        0.0091
     20  C15        5.9180   36.2150   56.9050 C.3     0  <0>0        0.0005
     21  C16        7.2340   37.6500   55.3390 C.3     0  <0>0        0.0005
     22  C17        8.1550   37.1040   60.3480 C.3     0  <0>0        0.0608
     23  C18        8.9000   38.2480   59.6560 C.3     0  <0>0        0.0199
     24  C19        6.6470   37.3300   60.2260 C.3     0  <0>0        0.0199
     25  C20        8.5470   37.0620   61.8260 C.3     0  <0>0        0.0199
@<TRIPOS>BOND
     1    21    19    1
     2    19    20    1
     3    19    18    1
     4    18    16    1
     5    17    16    2
     6    16    15   am
     7    13    11    1
     8    12    11    1
     9    11     9    1
    10    11    14    1
    11    10     9    1
    12     9     7   am
    13    23    22    1
    14    15    22    1
    15    15     1    1
    16     2     1    1
    17     2     3    1
    18    24    22    1
    19     7     1    1
    20     7     8    2
    21    22    25    1
    22     3     4    1
    23     4     5    1
    24     5     6    1
