@<TRIPOS>MOLECULE
ZINC57671447_replica-1.pdb
 23 24 0 0 0
SMALL
GASTEIGER

@<TRIPOS>ATOM
      1  C10       -0.5510   29.5880   56.3000 C.ar    0  <0>0        0.0449
      2  C11       -0.2110   29.6800   57.6430 C.ar    0  <0>0        0.0155
      3  C12        0.0680   30.9120   58.2020 C.ar    0  <0>0        0.0143
      4  C13        0.0080   32.0540   57.4250 C.ar    0  <0>0        0.0315
      5  C14       -0.3310   31.9670   56.0860 C.ar    0  <0>0        0.0143
      6  C15       -0.6040   30.7370   55.5200 C.ar    0  <0>0        0.0155
      7  N1        -0.8320   28.3430   55.7320 N.pl3   0  <0>0       -0.3306
      8  H12       -1.6900   27.9190   55.8950 H       0  <0>0        0.1471
      9  C3         0.1660   27.6790   54.8910 C.3     0  <0>0        0.0919
     10  C2         0.6170   26.3810   55.5630 C.3     0  <0>0        0.0241
     11  C1        -0.1960   26.1590   56.8410 C.3     0  <0>0        0.0021
     12  C4        -0.4360   27.3670   53.5470 C.ar    0  <0>0       -0.0046
     13  C9        -1.1750   28.3270   52.8800 C.ar    0  <0>0       -0.0027
     14  C8        -1.7230   28.0420   51.6430 C.ar    0  <0>0       -0.0003
     15  C7        -1.5400   26.7940   51.0770 C.ar    0  <0>0       -0.0000
     16  C6        -0.8050   25.8330   51.7460 C.ar    0  <0>0       -0.0003
     17  C5        -0.2530   26.1200   52.9800 C.ar    0  <0>0       -0.0027
     18  N2         0.2890   33.3000   57.9920 N.pl3   0  <0>0       -0.3758
     19  H27       -0.5750   33.7940   58.1630 H       0  <0>0        0.1277
     20  C16        1.0050   33.1110   59.2600 C.3     0  <0>0        0.0726
     21  C17        0.3430   33.9550   60.3510 C.3     0  <0>0        0.0215
     22  C18        1.1230   34.0820   57.0690 C.3     0  <0>0        0.0726
     23  C19        0.6220   35.5270   57.0290 C.3     0  <0>0        0.0215
@<TRIPOS>BOND
     1    15    14   ar
     2    15    16   ar
     3    14    13   ar
     4    16    17   ar
     5    13    12   ar
     6    17    12   ar
     7    12     9    1
     8     9    10    1
     9     9     7    1
    10     6     5   ar
    11     6     1   ar
    12    10    11    1
    13     7     8    1
    14     7     1    1
    15     5     4   ar
    16     1     2   ar
    17    23    22    1
    18    22    18    1
    19     4    18    1
    20     4     3   ar
    21     2     3   ar
    22    18    19    1
    23    18    20    1
    24    20    21    1
