@<TRIPOS>MOLECULE
ZINC06316583_replica-1.pdb
 19 20 0 0 0
SMALL
GASTEIGER

@<TRIPOS>ATOM
      1  S1        -0.6850   30.1060   54.9550 S.O2    0  <0>0        0.0751
      2  O1        -0.9370   31.1580   54.0330 O.2     0  <0>0       -0.1499
      3  O2        -1.5350   29.8450   56.0640 O.2     0  <0>0       -0.1499
      4  N1         0.8290   30.3710   55.5720 N.pl3   0  <0>0       -0.2149
      5  H5         1.5980   29.9320   55.1760 H       0  <0>0        0.1737
      6  C3         0.9990   31.2250   56.6640 C.ar    0  <0>0        0.0652
      7  C2         1.1330   30.7010   57.9430 C.ar    0  <0>0        0.0159
      8  C1         1.3010   31.5480   59.0220 C.ar    0  <0>0        0.0017
      9  C6         1.3350   32.9170   58.8280 C.ar    0  <0>0        0.0059
     10  C5         1.2020   33.4430   57.5550 C.ar    0  <0>0        0.0313
     11  C4         1.0390   32.6010   56.4730 C.ar    0  <0>0        0.0216
     12  I1         1.2560   35.5180   57.2680 I       0  <0>0       -0.0425
     13  C7        -0.6110   28.6180   54.0140 C.ar    0  <0>0        0.1443
     14  C11       -1.2770   28.5190   52.8090 C.ar    0  <0>0        0.1199
     15  N2        -1.2270   27.4090   52.0990 N.ar    0  <0>0       -0.2310
     16  C10       -0.5450   26.3550   52.5070 C.ar    0  <0>0        0.1384
     17  C9         0.1430   26.3790   53.7080 C.ar    0  <0>0        0.0322
     18 Cl         -0.5160   24.9210   51.5300 Cl      0  <0>0       -0.0613
     19  C8         0.1160   27.5310   54.4770 C.ar    0  <0>0        0.0242
@<TRIPOS>BOND
     1    18    16    1
     2    15    16   ar
     3    15    14   ar
     4    16    17   ar
     5    14    13   ar
     6    17    19   ar
     7    13    19   ar
     8    13     1    1
     9     2     1    2
    10     1     4    1
    11     1     3    2
    12     5     4    1
    13     4     6    1
    14    11     6   ar
    15    11    10   ar
    16     6     7   ar
    17    12    10    1
    18    10     9   ar
    19     7     8   ar
    20     9     8   ar
