@<TRIPOS>MOLECULE
ZINC49903282_replica-1.pdb
 24 25 0 0 0
SMALL
GASTEIGER

@<TRIPOS>ATOM
      1  C10       -0.5400   30.8940   54.6960 C.3     0  <0>0        0.0549
      2  C9         0.6670   31.4600   55.4470 C.3     0  <0>0        0.0899
      3  N1         0.2790   32.6950   56.1340 N.pl3   0  <0>0       -0.3328
      4  H11       -0.0620   33.4460   55.6250 H       0  <0>0        0.1468
      5  C5         0.4010   32.7900   57.5230 C.ar    0  <0>0        0.0406
      6  C4         0.4210   31.6380   58.3000 C.ar    0  <0>0        0.0137
      7  C3         0.5430   31.7350   59.6710 C.ar    0  <0>0       -0.0030
      8  C2         0.6440   32.9770   60.2720 C.ar    0  <0>0       -0.0221
      9  C1         0.7770   33.0790   61.7700 C.3     0  <0>0        0.0310
     10  C7         0.6190   34.1250   59.5020 C.ar    0  <0>0       -0.0073
     11  C6         0.5040   34.0350   58.1290 C.ar    0  <0>0       -0.0091
     12  C8         0.4840   35.2860   57.2900 C.3     0  <0>0        0.0323
     13  C11       -0.9670   29.5730   55.3400 C.3     0  <0>0        0.1338
     14  C12       -0.8150   28.4550   54.3400 C.ar    0  <0>0       -0.0036
     15  C17       -0.0610   27.3420   54.6590 C.ar    0  <0>0       -0.0242
     16  C16        0.0750   26.3150   53.7440 C.ar    0  <0>0       -0.0088
     17  C18        0.6100   27.2460   56.0050 C.3     0  <0>0        0.0308
     18  C15       -0.5370   26.4050   52.5080 C.ar    0  <0>0       -0.0225
     19  C14       -1.2860   27.5210   52.1870 C.ar    0  <0>0       -0.0088
     20  C19       -0.3860   25.2860   51.5090 C.3     0  <0>0        0.0310
     21  C13       -1.4260   28.5460   53.1030 C.ar    0  <0>0       -0.0242
     22  C20       -2.2440   29.7630   52.7540 C.3     0  <0>0        0.0308
     23  O1        -2.3340   29.6640   55.7490 O.3     0  <0>0       -0.3800
     24  H27       -2.9690   29.4780   55.0440 H       0  <0>0        0.2108
@<TRIPOS>BOND
     1    20    18    1
     2    19    18   ar
     3    19    21   ar
     4    18    16   ar
     5    22    21    1
     6    21    14   ar
     7    16    15   ar
     8    14    15   ar
     9    14    13    1
    10    15    17    1
    11     1    13    1
    12     1     2    1
    13    24    23    1
    14    13    23    1
    15     2     3    1
    16     4     3    1
    17     3     5    1
    18    12    11    1
    19     5    11   ar
    20     5     6   ar
    21    11    10   ar
    22     6     7   ar
    23    10     8   ar
    24     7     8   ar
    25     8     9    1
