@<TRIPOS>MOLECULE
ZINC37104108_replica-1.pdb
 19 20 0 0 0
SMALL
GASTEIGER

@<TRIPOS>ATOM
      1  C7        10.3910   35.5340   60.4620 C.ar    0  <0>0        0.0461
      2  C8        10.3430   36.7270   61.1720 C.ar    0  <0>0        0.0144
      3  C9        11.0080   36.8430   62.3770 C.ar    0  <0>0        0.0028
      4  C10       11.7250   35.7730   62.8790 C.ar    0  <0>0        0.0176
      5  C11       11.7770   34.5780   62.1740 C.ar    0  <0>0        0.0653
      6  C12       11.1050   34.4560   60.9660 C.ar    0  <0>0        0.0318
      7  N1         9.7180   35.4170   59.2430 N.pl3   0  <0>0       -0.3340
      8  H14       10.0710   34.8410   58.5480 H       0  <0>0        0.1468
      9  C5         8.4790   36.1650   59.0170 C.3     0  <0>0        0.0690
     10  C6         7.2920   35.1990   59.0210 C.3     0  <0>0        0.0212
     11  C3         8.5530   36.8770   57.6640 C.3     0  <0>0        0.0179
     12  C4         8.5190   38.3900   57.8820 C.3     0  <0>0        0.0017
     13  C2         7.3590   36.4590   56.8030 C.3     0  <0>0        0.0016
     14  C1         7.7840   36.4080   55.3330 C.3     0  <0>0        0.0001
     15  N2        12.5040   33.4930   62.6850 N.ar    0  <0>0       -0.3035
     16  C16       13.8380   33.4950   62.9770 C.ar    0  <0>0        0.0802
     17  C15       14.1680   32.2760   63.4470 C.ar    0  <0>0        0.0205
     18  C14       12.9990   31.4880   63.4370 C.ar    0  <0>0        0.0205
     19  C13       11.9980   32.2570   62.9660 C.ar    0  <0>0        0.0802
@<TRIPOS>BOND
     1    14    13    1
     2    13    11    1
     3    11    12    1
     4    11     9    1
     5     8     7    1
     6     9    10    1
     7     9     7    1
     8     7     1    1
     9     1     6   ar
    10     1     2   ar
    11     6     5   ar
    12     2     3   ar
    13     5    15    1
    14     5     4   ar
    15     3     4   ar
    16    15    19   ar
    17    15    16   ar
    18    19    18   ar
    19    16    17   ar
    20    18    17   ar
