@<TRIPOS>MOLECULE
ZINC00511378_replica-1.pdb
 26 27 0 0 0
SMALL
GASTEIGER

@<TRIPOS>ATOM
      1  N2        -0.4920   32.2300   57.0500 N.am    0  <0>0       -0.2028
      2  C11        0.4920   33.1420   57.1820 C.2     0  <0>0        0.2856
      3  O1         1.3720   33.2110   56.3510 O.2     0  <0>0       -0.2693
      4  H13       -1.1960   32.1750   57.7140 H       0  <0>0        0.1774
      5  N1        -0.4960   31.3600   55.9510 N.2     0  <0>0       -0.1775
      6  C10       -0.6320   30.0820   56.1370 C.2     0  <0>0        0.1176
      7  C7        -0.6360   29.1660   54.9820 C.ar    0  <0>0        0.0207
      8  C6         0.1160   27.9900   55.0150 C.ar    0  <0>0        0.0013
      9  C5         0.1070   27.1370   53.9310 C.ar    0  <0>0       -0.0042
     10  C4        -0.6460   27.4440   52.8120 C.ar    0  <0>0       -0.0225
     11  C9        -1.3950   28.6080   52.7710 C.ar    0  <0>0       -0.0042
     12  C8        -1.3980   29.4680   53.8500 C.ar    0  <0>0        0.0013
     13  C2        -0.6520   26.5080   51.6320 C.3     0  <0>0        0.0224
     14  C1        -0.6550   25.0610   52.1290 C.3     0  <0>0        0.0047
     15  C3        -1.9030   26.7590   50.7870 C.3     0  <0>0        0.0047
     16  C12        0.4960   34.0780   58.3640 C.3     0  <0>0        0.2911
     17  O2         1.3930   33.5830   59.3590 O.3     0  <0>0       -0.4659
     18  C13        0.8410   33.0940   60.5010 C.ar    0  <0>0        0.1352
     19  C18        0.9330   31.7420   60.7950 C.ar    0  <0>0        0.0115
     20  C17        0.3710   31.2490   61.9560 C.ar    0  <0>0       -0.0013
     21  C16       -0.2850   32.1020   62.8250 C.ar    0  <0>0       -0.0001
     22  C15       -0.3780   33.4500   62.5340 C.ar    0  <0>0        0.0031
     23  C14        0.1880   33.9490   61.3770 C.ar    0  <0>0        0.0366
     24  C19        1.6480   30.8120   59.8490 C.3     0  <0>0        0.0253
     25  C20        2.8970   30.2520   60.5310 C.3     0  <0>0        0.0048
     26  C21        0.7170   29.6600   59.4660 C.3     0  <0>0        0.0048
@<TRIPOS>BOND
     1    15    13    1
     2    13    14    1
     3    13    10    1
     4    11    10   ar
     5    11    12   ar
     6    10     9   ar
     7    12     7   ar
     8     9     8   ar
     9     7     8   ar
    10     7     6    1
    11     5     6    2
    12     5     1    1
    13     3     2    2
    14     1     2   am
    15     1     4    1
    16     2    16    1
    17    16    17    1
    18    17    18    1
    19    26    24    1
    20    24    25    1
    21    24    19    1
    22    18    19   ar
    23    18    23   ar
    24    19    20   ar
    25    23    22   ar
    26    20    21   ar
    27    22    21   ar
