@<TRIPOS>MOLECULE
ZINC04084880_replica-1.pdb
 25 27 0 0 0
SMALL
GASTEIGER

@<TRIPOS>ATOM
      1  C13        6.1220   36.0680   58.7020 C.2     0  <0>0        0.0751
      2  N1         5.9960   34.7970   58.7860 N.2     0  <0>0       -0.0917
      3  C22        5.6700   36.9470   59.8390 C.3     0  <0>0        0.0507
      4  C12        6.7220   36.6850   57.4660 C.3     0  <0>0        0.0437
      5  C10        8.2380   36.8860   57.4400 C.3     0  <0>0        0.0280
      6  C11        7.5960   35.7930   56.5830 C.3     0  <0>0        0.0107
      7  C7         9.0170   36.4490   58.6540 C.ar    0  <0>0       -0.0222
      8  C6         9.1650   37.3070   59.7270 C.ar    0  <0>0       -0.0046
      9  C5         9.8790   36.9070   60.8410 C.ar    0  <0>0       -0.0046
     10  C4        10.4450   35.6460   60.8810 C.ar    0  <0>0       -0.0225
     11  C9        10.2970   34.7870   59.8080 C.ar    0  <0>0       -0.0046
     12  C8         9.5790   35.1870   58.6970 C.ar    0  <0>0       -0.0046
     13  C2        11.2250   35.2080   62.0950 C.3     0  <0>0        0.0224
     14  C1        12.4060   34.3410   61.6570 C.3     0  <0>0        0.0047
     15  C3        11.7440   36.4410   62.8390 C.3     0  <0>0        0.0047
     16  O1         5.4330   34.2170   59.9470 O.2     0  <0>0       -0.3738
     17  C14        4.3140   33.3670   59.6880 C.3     0  <0>0        0.2854
     18  C15        3.0470   34.2150   59.5560 C.3     0  <0>0        0.2555
     19  O2         2.3890   33.9010   58.3280 O.3     0  <0>0       -0.4713
     20  C16        2.9200   34.4250   57.1920 C.ar    0  <0>0        0.1387
     21  C21        3.4070   33.5850   56.2010 C.ar    0  <0>0        0.0369
     22  C20        3.9450   34.1200   55.0470 C.ar    0  <0>0        0.0031
     23  C19        3.9990   35.4910   54.8790 C.ar    0  <0>0        0.0002
     24  C18        3.5140   36.3300   55.8650 C.ar    0  <0>0        0.0031
     25  C17        2.9690   35.8000   57.0190 C.ar    0  <0>0        0.0369
@<TRIPOS>BOND
     1    23    22   ar
     2    23    24   ar
     3    22    21   ar
     4    24    25   ar
     5    21    20   ar
     6     6     5    1
     7     6     4    1
     8    25    20   ar
     9    20    19    1
    10     5     4    1
    11     5     7    1
    12     4     1    1
    13    19    18    1
    14     7    12   ar
    15     7     8   ar
    16    12    11   ar
    17     1     2    2
    18     1     3    1
    19     2    16    1
    20    18    17    1
    21    17    16    1
    22     8     9   ar
    23    11    10   ar
    24     9    10   ar
    25    10    13    1
    26    14    13    1
    27    13    15    1
