@<TRIPOS>MOLECULE
ZINC38546083_replica-1.pdb
 30 33 0 0 0
SMALL
GASTEIGER

@<TRIPOS>ATOM
      1  C1        10.0250   34.8950   59.1910 C.3     0  <0>0        0.0310
      2  C2         8.6340   35.1790   59.6950 C.ar    0  <0>0       -0.0205
      3  C3         8.4350   36.0710   60.6930 C.ar    0  <0>0        0.0046
      4  S1         6.6610   36.0240   60.8880 S.2     0  <0>0       -0.0771
      5  C4         6.3000   34.8160   59.6240 C.ar    0  <0>0        0.0779
      6  C5         7.5430   34.5360   59.1390 C.ar    0  <0>0        0.0123
      7  C22        9.4490   36.8920   61.4480 C.3     0  <0>0        0.0379
      8  C6         7.7250   33.5420   58.0220 C.3     0  <0>0        0.1046
      9  C7         7.0670   34.0650   56.7710 C.ar    0  <0>0       -0.0013
     10  C12        7.4750   35.2690   56.2270 C.ar    0  <0>0        0.0270
     11  C11        6.8740   35.7460   55.0750 C.ar    0  <0>0        0.1399
     12  C10        5.8570   35.0230   54.4750 C.ar    0  <0>0        0.0296
     13  F1         7.2770   36.9190   54.5390 F       0  <0>0       -0.2042
     14  C9         5.4460   33.8230   55.0240 C.ar    0  <0>0        0.0020
     15  C8         6.0500   33.3440   56.1710 C.ar    0  <0>0       -0.0025
     16  N1         7.1090   32.2620   58.4000 N.3     0  <0>0       -0.2625
     17  C16        7.5380   31.8480   59.7430 C.3     0  <0>0        0.1051
     18  C15        6.8300   30.5450   60.1200 C.3     0  <0>0        0.1595
     19  O1         7.1120   29.5510   59.1310 O.3     0  <0>0       -0.3508
     20  C14        6.7060   29.9220   57.8110 C.3     0  <0>0        0.1595
     21  C13        7.4140   31.2190   57.4110 C.3     0  <0>0        0.1051
     22  N2         5.0650   34.2960   59.2300 N.am    0  <0>0       -0.2752
     23  C17        4.1950   35.0690   58.5500 C.2     0  <0>0        0.2559
     24  O2         4.5220   36.1860   58.1960 O.2     0  <0>0       -0.2692
     25  H17        4.8340   33.3790   59.4460 H       0  <0>0        0.1556
     26  C18        2.8550   34.5630   58.2380 C.ar    0  <0>0        0.0831
     27  S2         1.4640   34.3170   59.3260 S.2     0  <0>0       -0.0819
     28  C21        0.3540   33.7310   58.2100 C.ar    0  <0>0        0.0356
     29  C20        1.0350   33.7170   57.0380 C.ar    0  <0>0        0.0076
     30  C19        2.3410   34.1440   57.0200 C.ar    0  <0>0        0.0116
@<TRIPOS>BOND
     1    12    14   ar
     2    12    11   ar
     3    13    11    1
     4    14    15   ar
     5    11    10   ar
     6    15     9   ar
     7    10     9   ar
     8     9     8    1
     9    30    29   ar
    10    30    26   ar
    11    29    28   ar
    12    21    20    1
    13    21    16    1
    14    20    19    1
    15     8    16    1
    16     8     6    1
    17    24    23    2
    18    28    27   ar
    19    26    23    1
    20    26    27   ar
    21    16    17    1
    22    23    22   am
    23    19    18    1
    24     6     5   ar
    25     6     2   ar
    26     1     2    1
    27    22    25    1
    28    22     5    1
    29     5     4   ar
    30     2     3   ar
    31    17    18    1
    32     3     4   ar
    33     3     7    1
