@<TRIPOS>MOLECULE
ZINC49864575_replica-1.pdb
 20 22 0 0 0
SMALL
GASTEIGER

@<TRIPOS>ATOM
      1  C3        -0.5870   26.5190   52.5410 C.ar    0  <0>0       -0.0220
      2  C4         0.2080   26.1840   53.6250 C.ar    0  <0>0       -0.0030
      3  C5         0.3400   27.0490   54.6960 C.ar    0  <0>0        0.0147
      4  C6        -0.3270   28.2670   54.6970 C.ar    0  <0>0        0.0577
      5  C7        -1.1330   28.6040   53.5960 C.ar    0  <0>0        0.0570
      6  C8        -1.2540   27.7270   52.5190 C.ar    0  <0>0        0.0003
      7  C9        -1.7000   29.9340   53.8810 C.2     0  <0>0        0.2502
      8  O1        -2.4510   30.5840   53.1820 O.2     0  <0>0       -0.2816
      9  C10       -1.1460   30.3080   55.2240 C.2     0  <0>0        0.2922
     10  O2        -1.3680   31.3360   55.8300 O.2     0  <0>0       -0.2660
     11  N1        -0.3610   29.2970   55.6340 N.am    0  <0>0       -0.2476
     12  C11        0.3660   29.2800   56.9060 C.3     0  <0>0        0.1316
     13  C12       -0.5220   28.7160   57.9850 C.ar    0  <0>0        0.0281
     14  S1        -1.6780   27.3580   57.8950 S.2     0  <0>0       -0.0885
     15  C15       -2.2510   27.4020   59.5840 C.ar    0  <0>0        0.0418
     16  C14       -1.5390   28.4360   60.0960 C.ar    0  <0>0        0.0413
     17  C13       -0.6530   29.1100   59.2760 C.ar    0  <0>0        0.0111
     18 Br         -1.7560   28.9510   61.9020 Br      0  <0>0       -0.0485
     19  C2        -0.7190   25.5650   51.3820 C.3     0  <0>0        0.0264
     20  C1        -0.4760   24.1340   51.8680 C.3     0  <0>0        0.0050
@<TRIPOS>BOND
     1    19    20    1
     2    19     1    1
     3     6     1   ar
     4     6     5   ar
     5     1     2   ar
     6     8     7    2
     7     5     7    1
     8     5     4   ar
     9     2     3   ar
    10     7     9    1
    11     3     4   ar
    12     4    11    1
    13     9    11   am
    14     9    10    2
    15    11    12    1
    16    12    13    1
    17    14    13   ar
    18    14    15   ar
    19    13    17   ar
    20    17    16   ar
    21    15    16   ar
    22    16    18    1
