@<TRIPOS>MOLECULE
ZINC38111997_replica-1.pdb
 23 24 0 0 0
SMALL
GASTEIGER

@<TRIPOS>ATOM
      1  C5        11.2300   35.3540   61.0370 C.3     0  <0>0        0.0001
      2  C6        10.4400   36.4670   61.7290 C.3     0  <0>0        0.0017
      3  C7         9.7710   37.3490   60.6730 C.3     0  <0>0        0.0204
      4  C8         8.8210   36.5000   59.8250 C.3     0  <0>0        0.0813
      5  C9         9.6120   35.3870   59.1340 C.3     0  <0>0        0.0204
      6  C10       10.2810   34.5060   60.1900 C.3     0  <0>0        0.0017
      7  C11        7.7500   35.8810   60.7250 C.3     0  <0>0        0.1548
      8  O1         6.8990   36.9120   61.2290 O.3     0  <0>0       -0.3803
      9  H21        7.3540   37.7490   61.4010 H       0  <0>0        0.2105
     10  N1         8.1820   37.3460   58.8140 N.pl3   0  <0>0       -0.3332
     11  H22        8.1560   38.3080   58.9340 H       0  <0>0        0.1468
     12  C12        7.6100   36.7670   57.6770 C.ar    0  <0>0        0.0448
     13  C17        8.2790   36.8200   56.4600 C.ar    0  <0>0        0.0174
     14  C16        7.7160   36.2440   55.3380 C.ar    0  <0>0        0.0382
     15  C15        6.4790   35.6210   55.4240 C.ar    0  <0>0        0.1388
     16  C14        5.8090   35.5720   56.6370 C.ar    0  <0>0        0.0382
     17  C13        6.3730   36.1420   57.7610 C.ar    0  <0>0        0.0174
     18  O2         5.9240   35.0590   54.3180 O.3     0  <0>0       -0.4714
     19  C18        4.6050   34.5250   54.4530 C.3     0  <0>0        0.2525
     20  C2        11.8990   34.4710   62.0930 C.3     0  <0>0        0.0000
     21  C1        11.1140   33.1670   62.2390 C.3     0  <0>0        0.0000
     22  C3        11.9180   35.2070   63.4350 C.3     0  <0>0        0.0000
     23  C4        13.3330   34.1590   61.6610 C.3     0  <0>0        0.0000
@<TRIPOS>BOND
     1    18    19    1
     2    18    15    1
     3    14    15   ar
     4    14    13   ar
     5    15    16   ar
     6    13    12   ar
     7    16    17   ar
     8    12    17   ar
     9    12    10    1
    10    10    11    1
    11    10     4    1
    12     5     4    1
    13     5     6    1
    14     4     3    1
    15     4     7    1
    16     6     1    1
    17     3     2    1
    18     7     8    1
    19     1     2    1
    20     1    20    1
    21     8     9    1
    22    23    20    1
    23    20    21    1
    24    20    22    1
