@<TRIPOS>MOLECULE
ZINC57831881_replica-1.pdb
 27 28 0 0 0
SMALL
GASTEIGER

@<TRIPOS>ATOM
      1  N2         0.0630   32.5740   55.9280 N.am    0  <0>0       -0.2886
      2  C9         1.3390   32.9580   56.1280 C.2     0  <0>0        0.3045
      3  O2         2.1830   32.1330   56.4230 O.2     0  <0>0       -0.2525
      4  N3         1.6810   34.2560   56.0010 N.am    0  <0>0       -0.2683
      5  H11       -0.6100   33.2330   55.6920 H       0  <0>0        0.1510
      6  H12        1.0240   34.9030   55.7000 H       0  <0>0        0.1564
      7  C8        -0.3090   31.1640   56.0650 C.3     0  <0>0        0.0929
      8  C7        -0.2050   30.4740   54.7040 C.3     0  <0>0        0.0459
      9  C6        -1.5370   29.7980   54.3720 C.3     0  <0>0        0.1108
     10  N1        -1.3070   28.7030   53.4280 N.ar    0  <0>0       -0.2941
     11  C3        -0.4630   27.6930   53.7630 C.ar    0  <0>0        0.0783
     12  C2        -0.2340   26.6700   52.9070 C.ar    0  <0>0        0.0189
     13  C1        -0.8730   26.6460   51.6590 C.ar    0  <0>0        0.0064
     14  C5        -1.7210   27.6600   51.3240 C.ar    0  <0>0        0.0608
     15  C4        -1.9360   28.7070   52.2370 C.ar    0  <0>0        0.2610
     16  O1        -2.6920   29.6210   51.9500 O.2     0  <0>0       -0.2670
     17  C10        2.9850   34.6690   56.3040 C.ar    0  <0>0        0.0516
     18  C15        3.9970   34.5210   55.3640 C.ar    0  <0>0        0.0152
     19  C14        5.2800   34.9330   55.6600 C.ar    0  <0>0        0.0077
     20  C13        5.5630   35.4880   56.9020 C.ar    0  <0>0        0.0328
     21  C12        4.5520   35.6320   57.8440 C.ar    0  <0>0        0.0077
     22  C11        3.2680   35.2240   57.5450 C.ar    0  <0>0        0.0152
     23  S1         7.2020   36.0090   57.2820 S.3     0  <0>0       -0.0144
     24  C16        7.5850   37.2260   55.9940 C.3     0  <0>0        0.4477
     25  F1         6.4450   37.9900   55.7190 F       0  <0>0       -0.1600
     26  F2         8.6140   38.0660   56.4360 F       0  <0>0       -0.1600
     27  F3         7.9940   36.5630   54.8320 F       0  <0>0       -0.1600
@<TRIPOS>BOND
     1    14    13   ar
     2    14    15   ar
     3    13    12   ar
     4    16    15    2
     5    15    10   ar
     6    12    11   ar
     7    10    11   ar
     8    10     9    1
     9     9     8    1
    10     8     7    1
    11    27    24    1
    12    18    19   ar
    13    18    17   ar
    14    19    20   ar
    15     5     1    1
    16     6     4    1
    17    25    24    1
    18     1     7    1
    19     1     2   am
    20    24    26    1
    21    24    23    1
    22     4     2   am
    23     4    17    1
    24     2     3    2
    25    17    22   ar
    26    20    23    1
    27    20    21   ar
    28    22    21   ar
