@<TRIPOS>MOLECULE
ZINC14551879_replica-1.pdb
 26 29 0 0 0
SMALL
GASTEIGER

@<TRIPOS>ATOM
      1  C8         8.9960   34.6640   60.1150 C.3     0  <0>0        0.0921
      2  C9         9.0120   34.0710   58.7210 C.3     0  <0>0        0.0263
      3  C10        8.7270   32.5720   58.5730 C.3     0  <0>0        0.0023
      4  C11        8.0990   32.5190   57.1780 C.3     0  <0>0        0.0004
      5  C12        7.5340   33.6860   56.8910 C.3     0  <0>0        0.0045
      6  C13        7.6990   34.5890   58.0560 C.3     0  <0>0        0.0272
      7  C14        7.8440   36.0550   57.9160 C.ar    0  <0>0        0.0153
      8  C15        7.2770   36.7410   56.8620 C.ar    0  <0>0        0.1402
      9  C16        7.4120   38.1130   56.7640 C.ar    0  <0>0        0.0261
     10  C17        8.1180   38.8020   57.7340 C.ar    0  <0>0        0.0326
     11  C18        8.6900   38.1240   58.7880 C.ar    0  <0>0        0.1529
     12  C19        8.5750   36.7340   58.8930 C.ar    0  <0>0        0.0702
     13  N1         9.2070   36.1130   59.9690 N.pl3   0  <0>0       -0.3290
     14  F1         9.3750   38.8080   59.7300 F       0  <0>0       -0.2029
     15  H17       10.1910   36.3380   59.9870 H       0  <0>0        0.1471
     16  C5        10.1040   34.0630   60.9410 C.ar    0  <0>0       -0.0045
     17  C4        11.2990   34.7430   61.0920 C.ar    0  <0>0       -0.0022
     18  C3        12.3170   34.1970   61.8470 C.ar    0  <0>0        0.0059
     19  C2        12.1390   32.9620   62.4590 C.ar    0  <0>0        0.0252
     20  C7        10.9360   32.2810   62.3070 C.ar    0  <0>0        0.0059
     21  C6         9.9210   32.8370   61.5530 C.ar    0  <0>0       -0.0022
     22  S1        13.4350   32.2600   63.4250 S.3     0  <0>0       -0.1127
     23  C1        12.9620   30.5160   63.5930 C.3     0  <0>0        0.0742
     24  N2         6.5190   36.0020   55.8270 N.pl3   0  <0>0        0.0574
     25  O1         7.0430   35.7430   54.7580 O.2     0  <0>0       -0.1261
     26  O2         5.3730   35.6540   56.0450 O.2     0  <0>0       -0.1261
@<TRIPOS>BOND
     1    25    24    2
     2    24    26    2
     3    24     8    1
     4     9     8   ar
     5     9    10   ar
     6     8     7   ar
     7     5     4    1
     8     5     6    1
     9     4     3    1
    10    10    11   ar
    11     7     6    1
    12     7    12   ar
    13     6     2    1
    14     3     2    1
    15     2     1    1
    16    11    12   ar
    17    11    14    1
    18    12    13    1
    19    13    15    1
    20    13     1    1
    21     1    16    1
    22    16    17   ar
    23    16    21   ar
    24    17    18   ar
    25    21    20   ar
    26    18    19   ar
    27    20    19   ar
    28    19    22    1
    29    22    23    1
