@<TRIPOS>MOLECULE
ZINC04026226_replica-1.pdb
 29 32 0 0 0
SMALL
GASTEIGER

@<TRIPOS>ATOM
      1  C3         7.6000   36.7460   58.3380 C.3     0  <0>0        0.1859
      2  C4         8.5580   35.9710   57.4100 C.3     0  <0>0        0.0474
      3  C5         9.4390   35.0920   58.3250 C.3     0  <0>0        0.0045
      4  C6         8.5760   34.9100   59.6090 C.3     0  <0>0        0.0078
      5  C7         7.9510   36.3100   59.7660 C.3     0  <0>0        0.0404
      6  C8         6.7410   36.3240   60.6710 C.3     0  <0>0        0.0038
      7  C9         5.7130   35.2840   60.2820 C.3     0  <0>0        0.0008
      8  C10        6.3840   33.9080   60.3110 C.3     0  <0>0        0.0078
      9  C11        7.4930   33.8850   59.2680 C.3     0  <0>0        0.0233
     10  C12        8.0990   32.5090   59.1470 C.2     0  <0>0       -0.0154
     11  C13        7.2120   31.4920   58.9470 C.2     0  <0>0        0.0492
     12  C14        5.7870   31.9300   58.9330 C.2     0  <0>0       -0.0145
     13  C15        5.0080   31.5540   57.9390 C.2     0  <0>0       -0.0009
     14  C16        3.5880   32.0500   57.8350 C.3     0  <0>0        0.1322
     15  C17        3.5370   33.4610   58.4370 C.3     0  <0>0        0.0341
     16  C18        3.9570   33.3780   59.9030 C.3     0  <0>0        0.0069
     17  C19        5.3530   32.8200   60.0560 C.3     0  <0>0        0.0199
     18  C20        5.3240   31.9500   61.3140 C.3     0  <0>0        0.0044
     19 Cl          7.7020   29.8380   58.7450 Cl      0  <0>0       -0.0829
     20  C21        9.0060   37.2630   60.3310 C.3     0  <0>0        0.0039
     21  C2         7.8140   38.2300   58.1810 C.2     0  <0>0        0.1869
     22  C1         8.7620   38.7470   57.1300 C.3     0  <0>0        0.0760
     23  O1         7.2260   39.0040   58.8990 O.2     0  <0>0       -0.2924
     24  O3         6.2220   36.4030   58.0340 O.3     0  <0>0       -0.4486
     25  C22        5.9200   36.1810   56.7450 C.2     0  <0>0        0.3177
     26  O4         5.7350   37.1120   55.9990 O.2     0  <0>0       -0.2501
     27  C23        5.8120   34.7680   56.2290 C.3     0  <0>0        0.1212
     28  O2         3.1900   32.0940   56.4640 O.3     0  <0>0       -0.3801
     29  H25        2.2380   32.2060   56.3340 H       0  <0>0        0.2108
@<TRIPOS>BOND
     1    26    25    2
     2    27    25    1
     3    29    28    1
     4    28    14    1
     5    25    24    1
     6    22    21    1
     7     2     3    1
     8     2     1    1
     9    14    13    1
    10    14    15    1
    11    13    12    2
    12    24     1    1
    13    21     1    1
    14    21    23    2
    15     3     4    1
    16     1     5    1
    17    15    16    1
    18    19    11    1
    19    12    11    1
    20    12    17    1
    21    11    10    2
    22    10     9    1
    23     9     4    1
    24     9     8    1
    25     4     5    1
    26     5    20    1
    27     5     6    1
    28    16    17    1
    29    17     8    1
    30    17    18    1
    31     7     8    1
    32     7     6    1
