@<TRIPOS>MOLECULE
ZINC41121282_replica-1.pdb
 18 18 0 0 0
SMALL
GASTEIGER

@<TRIPOS>ATOM
      1  C5        -0.6230   28.9270   56.1950 C.3     0  <0>0        0.1693
      2  C2        -0.4910   28.2430   57.5570 C.3     0  <0>0        0.0269
      3  C1         0.9560   27.7940   57.7630 C.3     0  <0>0        0.0022
      4  C3        -1.4160   27.0260   57.6080 C.3     0  <0>0        0.0022
      5  C4        -0.8820   29.2280   58.6610 C.3     0  <0>0        0.0022
      6  C6        -0.3910   30.4080   56.3510 C.2     0  <0>0        0.3350
      7  O1         0.7360   30.8420   56.3900 O.2     0  <0>0       -0.2483
      8  O2        -1.4360   31.2450   56.4450 O.3     0  <0>0       -0.4433
      9  C7        -2.6130   30.8970   55.7140 C.3     0  <0>0        0.2557
     10  N1         0.3690   28.3720   55.2710 N.pl3   0  <0>0       -0.3254
     11  H14        1.3150   28.5240   55.4270 H       0  <0>0        0.1472
     12  C8        -0.0450   27.6230   54.1650 C.ar    0  <0>0        0.0451
     13  C13       -0.8230   28.2140   53.1780 C.ar    0  <0>0        0.0166
     14  C12       -1.2270   27.4730   52.0840 C.ar    0  <0>0        0.0309
     15  C11       -0.8670   26.1400   51.9780 C.ar    0  <0>0        0.1402
     16  C10       -0.0960   25.5490   52.9640 C.ar    0  <0>0        0.0309
     17  F1        -1.2680   25.4170   50.9100 F       0  <0>0       -0.2042
     18  C9         0.3150   26.2870   54.0560 C.ar    0  <0>0        0.0166
@<TRIPOS>BOND
     1    17    15    1
     2    15    14   ar
     3    15    16   ar
     4    14    13   ar
     5    16    18   ar
     6    13    12   ar
     7    18    12   ar
     8    12    10    1
     9    10    11    1
    10    10     1    1
    11     9     8    1
    12     1     6    1
    13     1     2    1
    14     6     7    2
    15     6     8    1
    16     2     4    1
    17     2     3    1
    18     2     5    1
