@<TRIPOS>MOLECULE
ZINC03709983_replica-1.pdb
 22 24 0 0 0
SMALL
GASTEIGER

@<TRIPOS>ATOM
      1  C11        8.4780   37.4500   59.1480 C.3     0  <0>0        0.0963
      2  C12        7.0770   36.8170   59.1730 C.3     0  <0>0        0.0517
      3  C13        6.7910   36.4660   57.7310 C.ar    0  <0>0       -0.0041
      4  C14        5.6890   35.8740   57.1450 C.ar    0  <0>0        0.0339
      5  C15        5.6620   35.6540   55.7760 C.ar    0  <0>0        0.1385
      6  C16        6.7500   36.0250   54.9990 C.ar    0  <0>0        0.0381
      7  C17        7.8470   36.6200   55.5830 C.ar    0  <0>0        0.0171
      8  C18        7.8790   36.8440   56.9610 C.ar    0  <0>0        0.0410
      9  N1         8.8860   37.4220   57.7410 N.pl3   0  <0>0       -0.3306
     10  H20        9.7310   37.7550   57.4000 H       0  <0>0        0.1471
     11  C8         9.4330   36.6420   59.9870 C.ar    0  <0>0       -0.0043
     12  C7         9.8630   37.1270   61.2070 C.ar    0  <0>0       -0.0030
     13  C6        10.7400   36.3850   61.9770 C.ar    0  <0>0       -0.0046
     14  C5        11.1850   35.1570   61.5250 C.ar    0  <0>0       -0.0228
     15  C10       10.7540   34.6700   60.3050 C.ar    0  <0>0       -0.0046
     16  C9         9.8750   35.4110   59.5380 C.ar    0  <0>0       -0.0030
     17  C2        12.1420   34.3480   62.3640 C.3     0  <0>0        0.0189
     18  C1        12.3620   35.0490   63.7050 C.3     0  <0>0        0.0044
     19  C3        11.5550   32.9560   62.6060 C.3     0  <0>0        0.0044
     20  C4        13.4790   34.2180   61.6300 C.3     0  <0>0        0.0044
     21  O1         4.5780   35.0710   55.1980 O.3     0  <0>0       -0.4714
     22  C19        4.7500   34.5390   53.8840 C.3     0  <0>0        0.2525
@<TRIPOS>BOND
     1    22    21    1
     2     6     7   ar
     3     6     5   ar
     4    21     5    1
     5     7     8   ar
     6     5     4   ar
     7     8     3   ar
     8     8     9    1
     9     4     3   ar
    10    10     9    1
    11     3     2    1
    12     9     1    1
    13     1     2    1
    14     1    11    1
    15    16    11   ar
    16    16    15   ar
    17    11    12   ar
    18    15    14   ar
    19    12    13   ar
    20    14    13   ar
    21    14    17    1
    22    20    17    1
    23    17    19    1
    24    17    18    1
