@<TRIPOS>MOLECULE
ZINC01025526_replica-1.pdb
 27 29 0 0 0
SMALL
GASTEIGER

@<TRIPOS>ATOM
      1  N1         7.6420   36.7950   57.9930 N.am    0  <0>0       -0.3004
      2  C12        6.3560   36.4400   58.1780 C.2     0  <0>0        0.2227
      3  O1         5.7770   36.7610   59.1940 O.2     0  <0>0       -0.2751
      4  H10        8.1040   36.5380   57.1790 H       0  <0>0        0.1497
      5  C11        8.3420   37.5710   59.0200 C.3     0  <0>0        0.1163
      6  C8         9.2860   36.6680   59.7750 C.ar    0  <0>0       -0.0026
      7  C7         9.6340   35.4390   59.2440 C.ar    0  <0>0       -0.0026
      8  C6        10.4970   34.6090   59.9280 C.ar    0  <0>0        0.0002
      9  C5        11.0190   35.0110   61.1580 C.ar    0  <0>0        0.0060
     10  C10       10.6590   36.2490   61.6910 C.ar    0  <0>0        0.0002
     11  C9         9.7990   37.0730   60.9940 C.ar    0  <0>0       -0.0026
     12  C3        11.9440   34.1260   61.8970 C.ar    0  <0>0        0.0295
     13  C2        13.2950   34.2520   62.0810 C.ar    0  <0>0        0.0070
     14  C1        13.9550   33.2910   62.8180 C.ar    0  <0>0        0.0075
     15  C4        13.2490   32.2530   63.3350 C.ar    0  <0>0        0.0354
     16  S1        11.5910   32.6160   62.7820 S.2     0  <0>0       -0.0864
     17  C13        5.6340   35.6420   57.1200 C.3     0  <0>0        0.0856
     18  C14        6.1480   34.2020   57.1280 C.3     0  <0>0        0.0194
     19  C19        6.3510   33.7410   58.5730 C.3     0  <0>0        0.0010
     20  C18        6.8650   32.3000   58.5820 C.3     0  <0>0        0.0000
     21  C17        8.1960   32.2290   57.8330 C.3     0  <0>0        0.0000
     22  C16        7.9930   32.6890   56.3880 C.3     0  <0>0        0.0000
     23  C15        7.4800   34.1310   56.3790 C.3     0  <0>0        0.0010
     24  C20        5.1270   33.2930   56.4420 C.3     0  <0>0        0.1145
     25  C21        4.6220   33.9610   55.1890 C.2     0  <0>0        0.3649
     26  O2         3.5420   34.5290   55.1940 O.co2   0  <0>0       -0.2457
     27  O3         5.2910   33.9330   54.1700 O.co2   0  <0>0       -0.2457
@<TRIPOS>BOND
     1    27    25   ar
     2    25    26   ar
     3    25    24    1
     4    23    22    1
     5    23    18    1
     6    22    21    1
     7    24    18    1
     8    17    18    1
     9    17     2    1
    10    18    19    1
    11     4     1    1
    12    21    20    1
    13     1     2   am
    14     1     5    1
    15     2     3    2
    16    19    20    1
    17     5     6    1
    18     7     6   ar
    19     7     8   ar
    20     6    11   ar
    21     8     9   ar
    22    11    10   ar
    23     9    10   ar
    24     9    12    1
    25    12    13   ar
    26    12    16   ar
    27    13    14   ar
    28    16    15   ar
    29    14    15   ar
