@<TRIPOS>MOLECULE
ZINC23138350_replica-1.pdb
 27 29 0 0 0
SMALL
GASTEIGER

@<TRIPOS>ATOM
      1  C8         9.1170   36.7950   60.7500 C.1     0  <0>0        0.1787
      2  N1         7.8620   36.4530   61.1540 N.2     0  <0>0       -0.2640
      3  C9         6.7920   36.8840   60.4520 C.1     0  <0>0        0.1980
      4  O1         5.6610   36.5900   60.8020 O.2     0  <0>0       -0.2130
      5  C10        7.0070   37.6730   59.3090 C.3     0  <0>0        0.1910
      6  C11        8.2860   37.9810   58.9500 C.2     0  <0>0        0.1265
      7  N2         9.3090   37.5370   59.6770 N.2     0  <0>0       -0.3415
      8  C12        8.5430   38.8250   57.7280 C.3     0  <0>0        0.1414
      9  C13        7.8870   38.1870   56.5300 C.2     0  <0>0        0.2296
     10  O2         7.0610   38.8040   55.8910 O.2     0  <0>0       -0.2746
     11  N3         8.2190   36.9310   56.1700 N.am    0  <0>0       -0.2997
     12  H10        8.9680   36.3730   56.7500 H       0  <0>0        0.1498
     13  C14        7.5810   36.3120   55.0050 C.3     0  <0>0        0.1229
     14  C15        6.4770   35.3960   55.4660 C.ar    0  <0>0        0.0270
     15  S2         5.2950   34.4790   54.4920 S.2     0  <0>0       -0.0891
     16  C18        4.4100   33.7030   55.8340 C.ar    0  <0>0        0.0352
     17  C17        5.0630   34.1860   56.9180 C.ar    0  <0>0        0.0072
     18  C16        6.1260   35.0500   56.7300 C.ar    0  <0>0        0.0044
     19  S1        10.5070   36.2400   61.6790 S.3     0  <0>0       -0.0126
     20  C7        10.5120   34.4880   61.2230 C.3     0  <0>0        0.1029
     21  C5        11.6400   33.7870   61.9330 C.ar    0  <0>0        0.0172
     22  C4        11.4170   32.5690   62.5540 C.ar    0  <0>0        0.1370
     23  C3        12.4550   31.9250   63.2080 C.ar    0  <0>0        0.0293
     24  F1        10.1860   32.0120   62.5270 F       0  <0>0       -0.2045
     25  C2        13.7110   32.4990   63.2390 C.ar    0  <0>0        0.0023
     26  C1        13.9320   33.7150   62.6190 C.ar    0  <0>0       -0.0002
     27  C6        12.8980   34.3590   61.9670 C.ar    0  <0>0       -0.0012
@<TRIPOS>BOND
     1    15    14   ar
     2    15    16   ar
     3    13    14    1
     4    13    11    1
     5    14    18   ar
     6    16    17   ar
     7    10     9    2
     8    11     9   am
     9    11    12    1
    10     9     8    1
    11    18    17   ar
    12     8     6    1
    13     6     5    1
    14     6     7    2
    15     5     3    1
    16     7     1    2
    17     3     4    2
    18     3     2    2
    19     1     2    2
    20     1    19    1
    21    20    19    1
    22    20    21    1
    23    21    27   ar
    24    21    22   ar
    25    27    26   ar
    26    24    22    1
    27    22    23   ar
    28    26    25   ar
    29    23    25   ar
