@<TRIPOS>MOLECULE
ZINC61123312_replica-1.pdb
 22 24 0 0 0
SMALL
GASTEIGER

@<TRIPOS>ATOM
      1  C1         2.1540   29.8010   58.8650 C.3     0  <0>0        0.0001
      2  C2         1.4110   28.4850   59.1050 C.3     0  <0>0        0.0027
      3  C3         0.0780   28.7720   59.7990 C.3     0  <0>0        0.0002
      4  C4        -0.7730   29.6840   58.9150 C.3     0  <0>0        0.0027
      5  C5        -1.0340   28.9940   57.5740 C.3     0  <0>0        0.0286
      6  C6         0.2980   28.7080   56.8790 C.3     0  <0>0        0.1069
      7  C7         1.1490   27.7960   57.7640 C.3     0  <0>0        0.0311
      8  C8         0.0410   28.0300   55.5590 C.ar    0  <0>0        0.0018
      9  C13       -0.7410   28.6610   54.5800 C.ar    0  <0>0        0.0012
     10  C12       -0.9700   28.0090   53.3400 C.ar    0  <0>0        0.0190
     11  C14       -1.3100   29.9320   54.7790 C.ar    0  <0>0        0.0204
     12  C11       -0.4190   26.7380   53.1190 C.ar    0  <0>0        0.0015
     13  C16       -1.7510   28.6630   52.3730 C.ar    0  <0>0        0.0988
     14  C10        0.3310   26.1530   54.0930 C.ar    0  <0>0       -0.0002
     15  C9         0.5600   26.7960   55.3080 C.ar    0  <0>0       -0.0020
     16  N1        -2.2590   29.8440   52.6320 N.ar    0  <0>0       -0.2423
     17  C15       -2.0560   30.4770   53.7790 C.ar    0  <0>0        0.0989
     18  O1         0.9920   29.9370   56.6550 O.3     0  <0>0       -0.3827
     19  H18        0.5080   30.7210   56.9490 H       0  <0>0        0.2107
     20  C17       -1.7770   27.6790   57.8140 C.3     0  <0>0        0.0026
     21  C18       -2.0840   27.5300   59.3050 C.3     0  <0>0        0.0001
     22  C19       -3.0870   27.6810   57.0230 C.3     0  <0>0        0.0001
@<TRIPOS>BOND
     1    13    16   ar
     2    13    10   ar
     3    16    17   ar
     4    12    10   ar
     5    12    14   ar
     6    10     9   ar
     7    17    11   ar
     8    14    15   ar
     9     9    11   ar
    10     9     8   ar
    11    15     8   ar
    12     8     6    1
    13    18     6    1
    14    18    19    1
    15     6     5    1
    16     6     7    1
    17    22    20    1
    18     5    20    1
    19     5     4    1
    20     7     2    1
    21    20    21    1
    22     1     2    1
    23     4     3    1
    24     2     3    1
