@<TRIPOS>MOLECULE
ZINC13421470_replica-1.pdb
 28 30 0 0 0
SMALL
GASTEIGER

@<TRIPOS>ATOM
      1  N1         0.4570   30.1340   55.3430 N.am    0  <0>0       -0.2952
      2  C12        0.5420   31.3760   55.8610 C.2     0  <0>0        0.2674
      3  O1        -0.4660   31.9640   56.1950 O.2     0  <0>0       -0.2710
      4  H10        1.2630   29.6640   55.0770 H       0  <0>0        0.1501
      5  C7        -0.8510   29.4940   55.1850 C.3     0  <0>0        0.1230
      6  C4        -0.7940   28.5110   54.0440 C.ar    0  <0>0        0.0002
      7  C3        -0.0870   27.3320   54.1830 C.ar    0  <0>0       -0.0023
      8  C2        -0.0350   26.4300   53.1360 C.ar    0  <0>0       -0.0003
      9  C1        -0.6900   26.7080   51.9510 C.ar    0  <0>0       -0.0000
     10  C6        -1.3970   27.8870   51.8120 C.ar    0  <0>0       -0.0003
     11  C5        -1.4530   28.7870   52.8600 C.ar    0  <0>0       -0.0023
     12  C8        -1.2120   28.7690   56.4560 C.ar    0  <0>0        0.0292
     13  S1        -0.1570   28.2780   57.8100 S.2     0  <0>0       -0.0888
     14  C11       -1.4010   27.5080   58.8330 C.ar    0  <0>0        0.0352
     15  C10       -2.5200   27.6740   58.0860 C.ar    0  <0>0        0.0072
     16  C9        -2.4240   28.3250   56.8700 C.ar    0  <0>0        0.0046
     17  C13        1.8860   32.0350   56.0240 C.3     0  <0>0        0.2893
     18  O2         1.7060   33.4060   56.3830 O.3     0  <0>0       -0.4656
     19  C14        2.7920   34.2180   56.2870 C.ar    0  <0>0        0.1393
     20  C19        3.0290   35.1790   57.2590 C.ar    0  <0>0        0.0366
     21  C18        4.1370   35.9980   57.1620 C.ar    0  <0>0       -0.0006
     22  C17        5.0020   35.8690   56.0920 C.ar    0  <0>0       -0.0107
     23  C16        4.7680   34.9130   55.1210 C.ar    0  <0>0       -0.0006
     24  C15        3.6640   34.0870   55.2160 C.ar    0  <0>0        0.0366
     25  C20        6.2070   36.7700   55.9850 C.3     0  <0>0        0.1404
     26  C21        7.0750   36.5940   57.2050 C.2     0  <0>0        0.3692
     27  O3         7.2650   37.5260   57.9500 O.co2   0  <0>0       -0.2453
     28  O4         7.6310   35.4010   57.4660 O.co2   0  <0>0       -0.2453
@<TRIPOS>BOND
     1    10     9   ar
     2    10    11   ar
     3     9     8   ar
     4    11     6   ar
     5     8     7   ar
     6     6     7   ar
     7     6     5    1
     8     4     1    1
     9    23    24   ar
    10    23    22   ar
    11     5     1    1
    12     5    12    1
    13    24    19   ar
    14     1     2   am
    15     2    17    1
    16     2     3    2
    17    25    22    1
    18    25    26    1
    19    17    18    1
    20    22    21   ar
    21    19    18    1
    22    19    20   ar
    23    12    16   ar
    24    12    13   ar
    25    16    15   ar
    26    21    20   ar
    27    26    28   ar
    28    26    27   ar
    29    13    14   ar
    30    15    14   ar
