@<TRIPOS>MOLECULE
ZINC36934482_replica-1.pdb
 22 23 0 0 0
SMALL
GASTEIGER

@<TRIPOS>ATOM
      1  C7         6.7600   34.0150   58.2800 C.ar    0  <0>0        0.0508
      2  C8         6.3190   33.2170   57.2350 C.ar    0  <0>0        0.0148
      3  C9         6.9730   32.0350   56.9430 C.ar    0  <0>0        0.0013
      4  C10        8.0690   31.6430   57.6900 C.ar    0  <0>0        0.0006
      5  C11        8.5160   32.4320   58.7340 C.ar    0  <0>0        0.0076
      6  C12        7.8690   33.6220   59.0300 C.ar    0  <0>0        0.0458
      7  N3         6.0990   35.2120   58.5780 N.pl3   0  <0>0       -0.3286
      8  H10        5.8200   35.3980   59.4880 H       0  <0>0        0.1471
      9  C6         5.8270   36.1830   57.5140 C.3     0  <0>0        0.1167
     10  C3         7.0120   37.0990   57.3560 C.ar    0  <0>0        0.0256
     11  C2         7.7910   37.2100   56.2550 C.ar    0  <0>0        0.0507
     12  C1         7.6280   36.4400   54.9700 C.3     0  <0>0        0.0512
     13  N2         8.7430   38.1310   56.5160 N.ar    0  <0>0       -0.2803
     14  N1         8.5370   38.6070   57.8180 N.ar    0  <0>0       -0.1776
     15  H1         9.4450   38.4140   55.9090 H       0  <0>0        0.1885
     16  C4         7.5010   37.9860   58.3210 C.ar    0  <0>0        0.0774
     17  C5         6.9330   38.1910   59.7020 C.3     0  <0>0        0.0537
     18  S1         8.4420   34.6330   60.3550 S.3     0  <0>0       -0.0132
     19  C13        9.9080   35.4580   59.6770 C.3     0  <0>0        0.4477
     20  F1        11.0560   34.7540   60.0570 F       0  <0>0       -0.1600
     21  F2         9.8220   35.4910   58.2820 F       0  <0>0       -0.1600
     22  F3         9.9770   36.7650   60.1720 F       0  <0>0       -0.1600
@<TRIPOS>BOND
     1    12    11    1
     2    15    13    1
     3    11    13   ar
     4    11    10   ar
     5    13    14   ar
     6     3     2   ar
     7     3     4   ar
     8     2     1   ar
     9    10     9    1
    10    10    16   ar
    11     9     7    1
    12     4     5   ar
    13    14    16   ar
    14     1     7    1
    15     1     6   ar
    16    21    19    1
    17    16    17    1
    18     7     8    1
    19     5     6   ar
    20     6    18    1
    21    19    20    1
    22    19    22    1
    23    19    18    1
