@<TRIPOS>MOLECULE
ZINC05788809_replica-1.pdb
 21 23 0 0 0
SMALL
GASTEIGER

@<TRIPOS>ATOM
      1  C1        -1.8920   27.4200   50.7320 C.3     0  <0>0        0.0268
      2  C2        -1.2340   27.3860   52.0870 C.2     0  <0>0       -0.0376
      3  C3        -1.3150   28.4810   52.8900 C.2     0  <0>0        0.0244
      4  C4        -0.7100   28.4890   54.1710 C.2     0  <0>0        0.1371
      5  C5        -0.0330   27.3040   54.5460 C.2     0  <0>0        0.0574
      6  C6         0.0420   26.2040   53.7280 C.2     0  <0>0       -0.0133
      7  C7        -0.5630   26.2390   52.4840 C.3     0  <0>0        0.0409
      8  C8        -0.4930   25.0440   51.5700 C.3     0  <0>0        0.0091
      9  S1         0.5670   27.7090   56.1690 S.3     0  <0>0       -0.0532
     10  C9        -0.0980   29.3670   56.2430 C.2     0  <0>0        0.1611
     11  N1        -0.7040   29.4770   55.0770 N.2     0  <0>0       -0.3949
     12  C10        0.0010   30.3510   57.3260 C.2     0  <0>0        0.0389
     13  C11        0.6310   31.5220   57.1150 C.2     0  <0>0        0.0033
     14  C12        0.7300   32.5110   58.2030 C.ar    0  <0>0        0.0031
     15  C17        0.9800   33.8530   57.9100 C.ar    0  <0>0        0.0366
     16  C16        1.0720   34.7760   58.9390 C.ar    0  <0>0        0.1337
     17  C15        0.9150   34.3660   60.2560 C.ar    0  <0>0        0.0366
     18  C14        0.6730   33.0360   60.5490 C.ar    0  <0>0        0.0031
     19  C13        0.5740   32.1080   59.5330 C.ar    0  <0>0        0.0002
     20  O1         1.3150   36.0820   58.6580 O.3     0  <0>0       -0.5055
     21  H15        0.7990   36.4280   57.9160 H       0  <0>0        0.2922
@<TRIPOS>BOND
     1     1     2    1
     2     8     7    1
     3     2     7    1
     4     2     3    2
     5     7     6    1
     6     3     4    1
     7     6     5    2
     8     4     5    1
     9     4    11    2
    10     5     9    1
    11    11    10    2
    12     9    10    1
    13    10    12    1
    14    13    12    2
    15    13    14    1
    16    15    14   ar
    17    15    16   ar
    18    21    20    1
    19    14    19   ar
    20    20    16    1
    21    16    17   ar
    22    19    18   ar
    23    17    18   ar
