@<TRIPOS>MOLECULE
ZINC05795615_replica-1.pdb
 22 22 0 0 0
SMALL
GASTEIGER

@<TRIPOS>ATOM
      1  N1        11.8240   35.4580   61.5270 N.am    0  <0>0       -0.2870
      2  C7        10.8030   34.7340   61.0270 C.2     0  <0>0        0.2491
      3  O3        10.5700   33.6260   61.4690 O.2     0  <0>0       -0.2698
      4  H10       11.9660   36.3690   61.2260 H       0  <0>0        0.1546
      5  C8         9.9670   35.2880   59.9430 C.ar    0  <0>0        0.0536
      6  C13        9.5940   36.6340   59.9620 C.ar    0  <0>0        0.0042
      7  C12        8.8170   37.1460   58.9440 C.ar    0  <0>0       -0.0041
      8  C11        8.3990   36.3270   57.9100 C.ar    0  <0>0       -0.0228
      9  C10        8.7600   34.9920   57.8880 C.ar    0  <0>0       -0.0041
     10  C9         9.5410   34.4680   58.8970 C.ar    0  <0>0        0.0042
     11  C14        7.5460   36.8930   56.8040 C.3     0  <0>0        0.0189
     12  C15        7.6490   38.4180   56.8080 C.3     0  <0>0        0.0044
     13  C16        8.0320   36.3520   55.4580 C.3     0  <0>0        0.0044
     14  C17        6.0890   36.4800   57.0230 C.3     0  <0>0        0.0044
     15  C5        12.6640   34.9060   62.4610 C.2     0  <0>0        0.0167
     16  C4        13.6200   34.0360   62.0780 C.3     0  <0>0        0.1461
     17  C6        12.5180   35.2710   63.9160 C.3     0  <0>0        0.0430
     18  C3        14.4390   33.4120   63.0470 C.2     0  <0>0        0.3224
     19  O2        14.1030   32.3480   63.5330 O.2     0  <0>0       -0.2497
     20  O1        15.5930   33.9960   63.4330 O.3     0  <0>0       -0.4482
     21  C2        15.9830   33.8220   64.7970 C.3     0  <0>0        0.2086
     22  C1        17.3950   34.3760   64.9980 C.3     0  <0>0        0.0513
@<TRIPOS>BOND
     1    13    11    1
     2    11    12    1
     3    11    14    1
     4    11     8    1
     5     9     8   ar
     6     9    10   ar
     7     8     7   ar
     8    10     5   ar
     9     7     6   ar
    10     5     6   ar
    11     5     2    1
    12     2     3    2
    13     2     1   am
    14     4     1    1
    15     1    15    2
    16    16    15    1
    17    16    18    1
    18    15    17    1
    19    18    20    1
    20    18    19    2
    21    20    21    1
    22    21    22    1
