@<TRIPOS>MOLECULE
ZINC16400866_replica-1.pdb
 27 29 0 0 0
SMALL
GASTEIGER

@<TRIPOS>ATOM
      1  C13        8.8580   36.6110   58.1810 C.2     0  <0>0        0.0478
      2  C14        7.6480   36.0270   57.8700 C.2     0  <0>0        0.0715
      3  C15        6.9020   36.4880   56.7380 C.1     0  <0>0        0.1005
      4  N1         6.3090   36.8530   55.8390 N.1     0  <0>0       -0.1908
      5  C16        7.1220   34.9240   58.7030 C.ar    0  <0>0        0.0098
      6  C21        6.3620   35.2060   59.8400 C.ar    0  <0>0        0.0012
      7  C20        5.8740   34.1740   60.6140 C.ar    0  <0>0        0.0067
      8  C19        6.1360   32.8600   60.2650 C.ar    0  <0>0        0.0346
      9  C18        6.8910   32.5740   59.1400 C.ar    0  <0>0        0.0067
     10 Br          5.4650   31.4500   61.3320 Br      0  <0>0       -0.0490
     11  C17        7.3790   33.5980   58.3550 C.ar    0  <0>0        0.0012
     12  C12        9.4770   36.3320   59.4160 C.ar    0  <0>0        0.1461
     13  C11        9.5600   37.1920   60.4980 C.ar    0  <0>0        0.0406
     14  C10       10.2530   36.5120   61.5020 C.ar    0  <0>0        0.0406
     15  C9        10.5670   35.2760   61.0080 C.ar    0  <0>0        0.1453
     16  O3        10.1000   35.1820   59.7500 O.2     0  <0>0       -0.4535
     17  C5        11.3020   34.2230   61.7340 C.ar    0  <0>0        0.0348
     18  C4        12.6070   34.4540   62.1680 C.ar    0  <0>0        0.0103
     19  C3        13.2960   33.4520   62.8480 C.ar    0  <0>0        0.0863
     20  C8        12.6700   32.2270   63.1040 C.ar    0  <0>0        0.0639
     21  C7        11.3740   32.0070   62.6750 C.ar    0  <0>0        0.0117
     22 Cl         13.5230   30.9800   63.9590 Cl      0  <0>0       -0.0820
     23  C6        10.6880   32.9930   61.9960 C.ar    0  <0>0        0.0039
     24  C2        14.6800   33.6850   63.3050 C.2     0  <0>0        0.3422
     25  O2        15.6130   33.4640   62.5570 O.2     0  <0>0       -0.2449
     26  O1        14.9100   34.1480   64.5490 O.3     0  <0>0       -0.4413
     27  C1        16.2880   34.1500   65.0080 C.3     0  <0>0        0.2560
@<TRIPOS>BOND
     1     4     3    3
     2     3     2    1
     3     2     1    2
     4     2     5    1
     5     1    12    1
     6    11     5   ar
     7    11     9   ar
     8     5     6   ar
     9     9     8   ar
    10    12    16   ar
    11    12    13   ar
    12    16    15   ar
    13     6     7   ar
    14     8     7   ar
    15     8    10    1
    16    13    14   ar
    17    15    14   ar
    18    15    17    1
    19    17    23   ar
    20    17    18   ar
    21    23    21   ar
    22    18    19   ar
    23    25    24    2
    24    21    20   ar
    25    19    20   ar
    26    19    24    1
    27    20    22    1
    28    24    26    1
    29    26    27    1
