@<TRIPOS>MOLECULE
ZINC32004719_replica-1.pdb
 21 23 0 0 0
SMALL
GASTEIGER

@<TRIPOS>ATOM
      1  C1         7.7800   38.6940   58.2370 C.3     0  <0>0        0.1306
      2  N1         8.2560   37.3090   58.1940 N.ar    0  <0>0       -0.3200
      3  C2         9.0230   36.6960   59.1570 C.ar    0  <0>0        0.0601
      4  C3         9.5500   37.1330   60.3710 C.ar    0  <0>0        0.0172
      5  C4        10.2930   36.2870   61.1410 C.ar    0  <0>0        0.0015
      6  C5        10.5360   34.9720   60.7270 C.ar    0  <0>0        0.0001
      7  C6        10.0220   34.5130   59.5250 C.ar    0  <0>0        0.0015
      8  C7         9.2600   35.3750   58.7290 C.ar    0  <0>0        0.0175
      9  C8         8.6090   35.2230   57.4800 C.ar    0  <0>0        0.0254
     10  C9         8.0100   36.4050   57.1790 C.ar    0  <0>0        0.1408
     11  C11       11.3410   34.0650   61.5830 C.ar    0  <0>0        0.0009
     12  C16       12.6610   34.3870   61.8920 C.ar    0  <0>0        0.0122
     13  C15       13.4050   33.5430   62.6940 C.ar    0  <0>0        0.0682
     14  C14       12.8440   32.3730   63.1800 C.ar    0  <0>0        0.0682
     15 Cl         15.0470   33.9450   63.0880 Cl      0  <0>0       -0.0814
     16  C13       11.5340   32.0470   62.8690 C.ar    0  <0>0        0.0122
     17 Cl         13.7850   31.3120   64.1810 Cl      0  <0>0       -0.0814
     18  C12       10.7820   32.8870   62.0740 C.ar    0  <0>0        0.0009
     19  C10        7.2270   36.6790   55.9660 C.2     0  <0>0        0.4033
     20  O1         7.7880   36.7930   54.8930 O.co2   0  <0>0       -0.2389
     21  O2         5.8860   36.8030   56.0430 O.co2   0  <0>0       -0.2389
@<TRIPOS>BOND
     1    20    19   ar
     2    19    21   ar
     3    19    10    1
     4    10     9   ar
     5    10     2   ar
     6     9     8   ar
     7     2     1    1
     8     2     3   ar
     9     8     3   ar
    10     8     7   ar
    11     3     4   ar
    12     7     6   ar
    13     4     5   ar
    14     6     5   ar
    15     6    11    1
    16    11    12   ar
    17    11    18   ar
    18    12    13   ar
    19    18    16   ar
    20    13    15    1
    21    13    14   ar
    22    16    14   ar
    23    14    17    1
