@<TRIPOS>MOLECULE
ZINC40419587_replica-1.pdb
 21 22 0 0 0
SMALL
GASTEIGER

@<TRIPOS>ATOM
      1  S2        -0.6970   29.8680   55.4220 S.O2    0  <0>0        0.1049
      2  O1        -2.0280   29.9160   55.9150 O.2     0  <0>0       -0.1461
      3  O2        -0.0760   30.9830   54.7940 O.2     0  <0>0       -0.1461
      4  N2         0.2680   29.4490   56.7020 N.2     0  <0>0       -0.1032
      5  C4         0.5790   30.3440   57.6070 C.ar    0  <0>0        0.1918
      6  S1         1.5870   30.1690   59.0720 S.2     0  <0>0       -0.0524
      7  N1         0.2120   31.6700   57.6890 N.ar    0  <0>0       -0.3354
      8  C3         1.4490   31.8480   59.6640 C.ar    0  <0>0        0.0219
      9  C2         0.6720   32.4090   58.7390 C.ar    0  <0>0        0.0375
     10  C11        2.0580   32.4710   60.8950 C.3     0  <0>0        0.0394
     11  C1         0.2940   33.8630   58.8560 C.3     0  <0>0        0.0500
     12  H9        -0.3580   32.0690   57.0130 H       0  <0>0        0.1676
     13  C5        -0.6340   28.5390   54.2670 C.ar    0  <0>0        0.1628
     14  C10       -1.3870   28.5950   53.1080 C.ar    0  <0>0        0.0581
     15  C9        -1.3330   27.5550   52.1970 C.ar    0  <0>0        0.0378
     16 Br         -2.4830   30.0960   52.7650 Br      0  <0>0       -0.0474
     17  C8        -0.5330   26.4530   52.4510 C.ar    0  <0>0        0.1430
     18  C7         0.2160   26.3940   53.6140 C.ar    0  <0>0        0.0607
     19  F1        -0.4860   25.4350   51.5640 F       0  <0>0       -0.2041
     20  C6         0.1670   27.4390   54.5210 C.ar    0  <0>0        0.1619
     21  F2         0.8980   27.3820   55.6560 F       0  <0>0       -0.2026
@<TRIPOS>BOND
     1    19    17    1
     2    15    17   ar
     3    15    14   ar
     4    17    18   ar
     5    16    14    1
     6    14    13   ar
     7    18    20   ar
     8    13    20   ar
     9    13     1    1
    10    20    21    1
    11     3     1    2
    12     1     2    2
    13     1     4    1
    14     4     5    2
    15    12     7    1
    16     5     7   ar
    17     5     6   ar
    18     7     9   ar
    19     9    11    1
    20     9     8   ar
    21     6     8   ar
    22     8    10    1
