@<TRIPOS>MOLECULE
ZINC34955876_replica-1.pdb
 21 22 0 0 0
SMALL
GASTEIGER

@<TRIPOS>ATOM
      1  S1         7.1320   35.7590   57.6150 S.O2    0  <0>0        0.0774
      2  O2         7.7070   34.9300   56.6140 O.2     0  <0>0       -0.1497
      3  O3         6.6990   37.0860   57.3490 O.2     0  <0>0       -0.1497
      4  N1         5.8180   34.9430   58.2070 N.pl3   0  <0>0       -0.1888
      5  C1         6.0070   33.8180   59.1260 C.3     0  <0>0        0.1392
      6  C2         4.5260   35.3270   57.8290 C.ar    0  <0>0        0.0691
      7  C7         3.6210   35.7630   58.7880 C.ar    0  <0>0        0.0192
      8  C6         2.3490   36.1470   58.4120 C.ar    0  <0>0        0.0379
      9  C5         1.9710   36.0860   57.0790 C.ar    0  <0>0        0.1338
     10  C4         2.8720   35.6460   56.1220 C.ar    0  <0>0        0.0379
     11  C3         4.1470   35.2680   56.4940 C.ar    0  <0>0        0.0192
     12  O1         0.7160   36.4590   56.7110 O.3     0  <0>0       -0.5055
     13  H8         0.6920   37.1970   56.0880 H       0  <0>0        0.2922
     14  C8         8.3100   35.8650   58.9210 C.ar    0  <0>0        0.1359
     15  C13        8.0700   36.6900   60.0050 C.ar    0  <0>0        0.0770
     16  C12        8.9930   36.7700   61.0320 C.ar    0  <0>0        0.0194
     17 Cl          6.6060   37.6210   60.0780 Cl      0  <0>0       -0.0808
     18  C11       10.1600   36.0310   60.9690 C.ar    0  <0>0        0.0355
     19  C10       10.4030   35.2110   59.8820 C.ar    0  <0>0        0.0081
     20 Br         11.4260   36.1440   62.3700 Br      0  <0>0       -0.0490
     21  C9         9.4790   35.1280   58.8590 C.ar    0  <0>0        0.0216
@<TRIPOS>BOND
     1    13    12    1
     2    10    11   ar
     3    10     9   ar
     4    11     6   ar
     5     2     1    2
     6    12     9    1
     7     9     8   ar
     8     3     1    2
     9     1     4    1
    10     1    14    1
    11     6     4    1
    12     6     7   ar
    13     4     5    1
    14     8     7   ar
    15    21    14   ar
    16    21    19   ar
    17    14    15   ar
    18    19    18   ar
    19    15    17    1
    20    15    16   ar
    21    18    16   ar
    22    18    20    1
