@<TRIPOS>MOLECULE
ZINC45995559_replica-1.pdb
 30 33 0 0 0
SMALL
GASTEIGER

@<TRIPOS>ATOM
      1  N1         6.6740   33.3200   59.9430 N.pl3   0  <0>0       -0.1663
      2  C8         7.7790   34.1300   59.9790 C.2     0  <0>0        0.1951
      3  C9         7.3500   35.4120   59.5810 C.3     0  <0>0        0.1327
      4  C10        5.9210   35.3040   59.3070 C.2     0  <0>0        0.0668
      5  N2         5.5690   34.0680   59.5250 N.2     0  <0>0       -0.1799
      6  C11        5.0160   36.4190   58.8500 C.3     0  <0>0        0.0497
      7  C12        8.2780   36.4600   59.5220 C.2     0  <0>0        0.0680
      8  C13        9.5780   36.1930   59.8580 C.2     0  <0>0        0.0720
      9  C14        9.9380   34.9030   60.2430 C.2     0  <0>0        0.2784
     10  N3         9.0520   33.9270   60.2940 N.2     0  <0>0       -0.3543
     11  C3         6.6560   31.9580   60.2670 C.ar    0  <0>0        0.0730
     12  C2         6.9000   31.0060   59.2860 C.ar    0  <0>0        0.0043
     13  C1         7.1830   31.4370   57.8710 C.3     0  <0>0        0.0333
     14  C7         6.8760   29.6620   59.6090 C.ar    0  <0>0        0.0550
     15  C6         6.6210   29.2670   60.9100 C.ar    0  <0>0        0.0112
     16 Cl          7.1740   28.4700   58.3820 Cl      0  <0>0       -0.0825
     17  C5         6.3790   30.2130   61.8890 C.ar    0  <0>0        0.0022
     18  C4         6.3960   31.5570   61.5710 C.ar    0  <0>0        0.0165
     19  O1        11.2280   34.6460   60.5740 O.2     0  <0>0       -0.4467
     20  C15       11.6180   34.9100   61.9230 C.3     0  <0>0        0.2347
     21  C16       12.2810   33.6880   62.5040 C.ar    0  <0>0        0.0213
     22  C21       11.5270   32.5690   62.8050 C.ar    0  <0>0       -0.0007
     23  C20       12.1370   31.4470   63.3340 C.ar    0  <0>0       -0.0002
     24  C19       13.4990   31.4470   63.5700 C.ar    0  <0>0       -0.0000
     25  C18       14.2520   32.5680   63.2740 C.ar    0  <0>0       -0.0002
     26  C17       13.6430   33.6890   62.7410 C.ar    0  <0>0       -0.0007
     27  C22        7.8570   37.8430   59.1000 C.3     0  <0>0        0.4159
     28  F1         7.3650   37.8030   57.7900 F       0  <0>0       -0.1661
     29  F2         6.8580   38.3100   59.9600 F       0  <0>0       -0.1661
     30  F3         8.9600   38.7030   59.1570 F       0  <0>0       -0.1661
@<TRIPOS>BOND
     1    28    27    1
     2    13    12    1
     3    16    14    1
     4     6     4    1
     5    27    30    1
     6    27     7    1
     7    27    29    1
     8    12    14   ar
     9    12    11   ar
    10     4     5    2
    11     4     3    1
    12     7     3    1
    13     7     8    2
    14     5     1    1
    15     3     2    1
    16    14    15   ar
    17     8     9    1
    18     1     2    1
    19     1    11    1
    20     2    10    2
    21     9    10    2
    22     9    19    1
    23    11    18   ar
    24    19    20    1
    25    15    17   ar
    26    18    17   ar
    27    20    21    1
    28    21    26   ar
    29    21    22   ar
    30    26    25   ar
    31    22    23   ar
    32    25    24   ar
    33    23    24   ar
