@<TRIPOS>MOLECULE
ZINC13683770_replica-1.pdb
 25 27 0 0 0
SMALL
GASTEIGER

@<TRIPOS>ATOM
      1  N2         1.4630   32.5740   55.5880 N.am    0  <0>0       -0.2178
      2  H25        0.9780   33.1600   54.9860 H       0  <0>0        0.1762
      3  N1         2.7230   32.9520   56.0700 N.2     0  <0>0       -0.1787
      4  C9         3.3320   33.9810   55.5590 C.2     0  <0>0        0.1130
      5  C6         4.6520   34.3770   56.0620 C.2     0  <0>0       -0.0061
      6  C5         5.7400   33.6430   55.8150 C.2     0  <0>0       -0.0288
      7  C4         7.0740   34.0910   56.3630 C.3     0  <0>0        0.0258
      8  C3         6.9130   35.4360   57.0840 C.3     0  <0>0        0.0050
      9  C2         5.7540   35.3830   58.0990 C.3     0  <0>0        0.0041
     10  C8         6.0450   36.4490   56.3180 C.3     0  <0>0        0.0047
     11  C1         5.7800   36.5140   59.1280 C.3     0  <0>0        0.0003
     12  C7         4.8410   35.6610   56.8900 C.3     0  <0>0        0.0236
     13  C19        5.5420   34.0040   58.7300 C.3     0  <0>0        0.0003
     14  C10        0.9150   31.3800   55.9690 C.2     0  <0>0        0.1505
     15  S1         0.1780   31.2400   57.4500 S.2     0  <0>0       -0.0172
     16  N3         0.9750   30.3010   55.1320 N.am    0  <0>0       -0.3145
     17  H12        1.8120   30.0720   54.6970 H       0  <0>0        0.1485
     18  C11       -0.2220   29.4920   54.8910 C.3     0  <0>0        0.0931
     19  C12        0.1570   28.0090   54.8830 C.3     0  <0>0        0.0475
     20  C13       -0.3290   27.3740   53.6060 C.ar    0  <0>0       -0.0205
     21  C18       -1.0680   28.1150   52.7020 C.ar    0  <0>0       -0.0042
     22  C17       -1.5100   27.5330   51.5300 C.ar    0  <0>0       -0.0003
     23  C16       -1.2200   26.2080   51.2630 C.ar    0  <0>0       -0.0000
     24  C15       -0.4850   25.4660   52.1690 C.ar    0  <0>0       -0.0003
     25  C14       -0.0400   26.0480   53.3400 C.ar    0  <0>0       -0.0042
@<TRIPOS>BOND
     1    23    22   ar
     2    23    24   ar
     3    22    21   ar
     4    24    25   ar
     5    21    20   ar
     6    25    20   ar
     7    20    19    1
     8    17    16    1
     9    19    18    1
    10    18    16    1
    11     2     1    1
    12    16    14    1
    13     4     5    1
    14     4     3    2
    15     1    14    1
    16     1     3    1
    17     6     5    2
    18     6     7    1
    19    14    15    2
    20     5    12    1
    21    10    12    1
    22    10     8    1
    23     7     8    1
    24    12     9    1
    25     8     9    1
    26     9    13    1
    27     9    11    1
