@<TRIPOS>MOLECULE
ZINC38610386_replica-1.pdb
 35 39 0 0 0
SMALL
GASTEIGER

@<TRIPOS>ATOM
      1  C10        9.1480   35.2110   58.1440 C.3     0  <0>0        0.1242
      2  C11        9.3980   35.9620   59.4220 C.ar    0  <0>0        0.0408
      3  C12        9.8970   35.9340   60.7290 C.ar    0  <0>0        0.1030
      4  N1         9.7190   37.1340   61.2450 N.ar    0  <0>0       -0.1727
      5  N2         9.1550   37.9170   60.3950 N.ar    0  <0>0       -0.2716
      6  H2         8.9280   38.8450   60.5580 H       0  <0>0        0.1891
      7  C13        8.9240   37.2460   59.2280 C.ar    0  <0>0        0.1266
      8  C14        8.3820   37.3420   57.8680 C.2     0  <0>0        0.2666
      9  O1         7.8890   38.3440   57.3860 O.2     0  <0>0       -0.2683
     10  N3         8.5080   36.1640   57.2280 N.am    0  <0>0       -0.2647
     11  C7         8.2340   34.0410   58.3990 C.ar    0  <0>0       -0.0000
     12  C6         8.5600   32.7890   57.9110 C.ar    0  <0>0       -0.0027
     13  C5         7.7210   31.7160   58.1460 C.ar    0  <0>0       -0.0045
     14  C4         6.5560   31.8950   58.8680 C.ar    0  <0>0       -0.0225
     15  C9         6.2270   33.1470   59.3500 C.ar    0  <0>0       -0.0045
     16  C8         7.0680   34.2200   59.1190 C.ar    0  <0>0       -0.0027
     17  C2         5.6410   30.7250   59.1240 C.3     0  <0>0        0.0224
     18  C1         4.2360   31.0550   58.6150 C.3     0  <0>0        0.0047
     19  C3         6.1720   29.4920   58.3880 C.3     0  <0>0        0.0047
     20  C15        8.0800   35.8810   55.8560 C.3     0  <0>0        0.1210
     21  C16        6.6970   35.2830   55.8740 C.ar    0  <0>0       -0.0023
     22  C21        6.4960   33.9950   55.4150 C.ar    0  <0>0       -0.0017
     23  C20        5.2280   33.4440   55.4360 C.ar    0  <0>0        0.0111
     24  C19        4.1590   34.1850   55.9060 C.ar    0  <0>0        0.0577
     25  C18        4.3610   35.4770   56.3600 C.ar    0  <0>0        0.0111
     26 Cl          2.5660   33.4960   55.9270 Cl      0  <0>0       -0.0822
     27  C17        5.6300   36.0250   56.3440 C.ar    0  <0>0       -0.0017
     28  C22       10.5160   34.7690   61.4070 C.ar    0  <0>0        0.0528
     29  C27       11.6210   34.9500   62.2440 C.ar    0  <0>0        0.1351
     30  C26       12.1890   33.8570   62.8800 C.ar    0  <0>0        0.0367
     31  C25       11.6720   32.5920   62.6770 C.ar    0  <0>0        0.0031
     32  C24       10.5810   32.4090   61.8450 C.ar    0  <0>0        0.0002
     33  C23       10.0020   33.4900   61.2100 C.ar    0  <0>0        0.0046
     34  O2        12.1340   36.1930   62.4380 O.3     0  <0>0       -0.5055
     35  H24       12.5830   36.3060   63.2870 H       0  <0>0        0.2922
@<TRIPOS>BOND
     1    22    23   ar
     2    22    21   ar
     3    23    24   ar
     4    20    21    1
     5    20    10    1
     6    21    27   ar
     7    24    26    1
     8    24    25   ar
     9    27    25   ar
    10    10     8   am
    11    10     1    1
    12     9     8    2
    13     8     7    1
    14    12    13   ar
    15    12    11   ar
    16     1    11    1
    17     1     2    1
    18    13    14   ar
    19    19    17    1
    20    11    16   ar
    21    18    17    1
    22    14    17    1
    23    14    15   ar
    24    16    15   ar
    25     7     2   ar
    26     7     5   ar
    27     2     3   ar
    28     5     6    1
    29     5     4   ar
    30     3     4   ar
    31     3    28    1
    32    33    28   ar
    33    33    32   ar
    34    28    29   ar
    35    32    31   ar
    36    29    34    1
    37    29    30   ar
    38    34    35    1
    39    31    30   ar
