@<TRIPOS>MOLECULE
ZINC12725918_replica-1.pdb
 24 26 0 0 0
SMALL
GASTEIGER

@<TRIPOS>ATOM
      1  C7        10.9720   35.1060   61.2010 C.ar    0  <0>0        0.1767
      2  C8        10.3840   34.9650   59.9740 C.ar    0  <0>0        0.0619
      3  C9         9.6920   36.1790   59.7880 C.ar    0  <0>0        0.1444
      4  N1         9.9100   36.8980   60.8520 N.ar    0  <0>0       -0.0776
      5  O1        10.6160   36.3240   61.6480 O.2     0  <0>0       -0.3536
      6  C10        8.8620   36.5700   58.5920 C.3     0  <0>0        0.2576
      7  O2         7.4540   36.4200   58.9100 O.3     0  <0>0       -0.4386
      8  C11        6.7920   35.4160   58.3010 C.2     0  <0>0        0.3424
      9  O3         7.2710   34.3010   58.2760 O.2     0  <0>0       -0.2449
     10  C12        5.4850   35.6730   57.6640 C.ar    0  <0>0        0.0867
     11  C17        5.4250   36.1060   56.3360 C.ar    0  <0>0        0.0639
     12  C16        4.1990   36.3450   55.7470 C.ar    0  <0>0        0.0121
     13 Cl          6.8870   36.3460   55.4310 Cl      0  <0>0       -0.0820
     14  C15        3.0330   36.1560   56.4660 C.ar    0  <0>0        0.0076
     15  C14        3.0860   35.7260   57.7820 C.ar    0  <0>0        0.0348
     16  C13        4.3040   35.4790   58.3830 C.ar    0  <0>0        0.0140
     17 Br          1.4860   35.4700   58.7550 Br      0  <0>0       -0.0490
     18  C6        11.8290   34.1210   61.8940 C.ar    0  <0>0        0.0374
     19  C1        13.1840   34.3900   62.0950 C.ar    0  <0>0        0.0054
     20  C2        13.9780   33.4710   62.7470 C.ar    0  <0>0        0.0297
     21  C3        13.4360   32.2760   63.1920 C.ar    0  <0>0        0.1401
     22  C4        12.0920   32.0010   62.9920 C.ar    0  <0>0        0.0297
     23  F1        14.2190   31.3760   63.8260 F       0  <0>0       -0.2042
     24  C5        11.2880   32.9170   62.3450 C.ar    0  <0>0        0.0054
@<TRIPOS>BOND
     1    13    11    1
     2    12    11   ar
     3    12    14   ar
     4    11    10   ar
     5    14    15   ar
     6    10     8    1
     7    10    16   ar
     8    15    16   ar
     9    15    17    1
    10     9     8    2
    11     8     7    1
    12     6     7    1
    13     6     3    1
    14     3     2   ar
    15     3     4   ar
    16     2     1   ar
    17     4     5   ar
    18     1     5   ar
    19     1    18    1
    20    18    19   ar
    21    18    24   ar
    22    19    20   ar
    23    24    22   ar
    24    20    21   ar
    25    22    21   ar
    26    21    23    1
