@<TRIPOS>MOLECULE
ZINC37408655_replica-1.pdb
 20 22 0 0 0
SMALL
GASTEIGER

@<TRIPOS>ATOM
      1  S1        -0.7000   29.6980   55.1320 S.O2    0  <0>0        0.0865
      2  O1         0.2330   30.5720   54.5120 O.2     0  <0>0       -0.1476
      3  O2        -2.1040   29.8280   54.9480 O.2     0  <0>0       -0.1476
      4  N1        -0.3000   28.1640   54.6570 N.ar    0  <0>0       -0.2077
      5  C4        -0.6620   27.5830   53.4400 C.ar    0  <0>0        0.0825
      6  C3        -1.4070   28.1220   52.3900 C.ar    0  <0>0        0.0190
      7  C5        -0.1800   26.2880   53.3280 C.ar    0  <0>0        0.0191
      8  C2        -1.6570   27.3730   51.2600 C.ar    0  <0>0        0.0015
      9  C1        -1.1710   26.0830   51.1580 C.ar    0  <0>0        0.0001
     10  C6        -0.4330   25.5420   52.1930 C.ar    0  <0>0        0.0015
     11  C7         0.5850   25.9500   54.5880 C.ar    0  <0>0        0.0220
     12  C8         0.4880   27.2170   55.4530 C.ar    0  <0>0        0.0999
     13  C9        -0.4090   29.8000   56.8670 C.ar    0  <0>0        0.1340
     14  C14       -1.2560   29.1550   57.7490 C.ar    0  <0>0        0.0558
     15  C13       -1.0250   29.2300   59.1110 C.ar    0  <0>0        0.0377
     16 Br         -2.7270   28.1630   57.0930 Br      0  <0>0       -0.0475
     17  C12        0.0490   29.9590   59.5900 C.ar    0  <0>0        0.1407
     18  C11        0.8940   30.6090   58.7060 C.ar    0  <0>0        0.0311
     19  F1         0.2740   30.0370   60.9200 F       0  <0>0       -0.2042
     20  C10        0.6640   30.5290   57.3460 C.ar    0  <0>0        0.0232
@<TRIPOS>BOND
     1     9     8   ar
     2     9    10   ar
     3     8     6   ar
     4    10     7   ar
     5     6     5   ar
     6     7     5   ar
     7     7    11   ar
     8     5     4   ar
     9     2     1    2
    10    11    12   ar
    11     4     1    1
    12     4    12   ar
    13     3     1    2
    14     1    13    1
    15    13    20   ar
    16    13    14   ar
    17    16    14    1
    18    20    18   ar
    19    14    15   ar
    20    18    17   ar
    21    15    17   ar
    22    17    19    1
