@<TRIPOS>MOLECULE
ZINC49214489_replica-1.pdb
 21 22 0 0 0
SMALL
GASTEIGER

@<TRIPOS>ATOM
      1  N1         7.9930   36.2320   59.7640 N.am    0  <0>0       -0.2982
      2  C8         9.1130   36.8120   60.2420 C.2     0  <0>0        0.2460
      3  O1         9.3080   37.9970   60.0610 O.2     0  <0>0       -0.2701
      4  H10        7.8370   35.2860   59.9080 H       0  <0>0        0.1500
      5  C9        10.1030   36.0040   60.9860 C.ar    0  <0>0        0.0533
      6  C14       10.9390   36.6100   61.9240 C.ar    0  <0>0        0.0042
      7  C13       11.8560   35.8500   62.6200 C.ar    0  <0>0       -0.0041
      8  C12       11.9580   34.4920   62.3790 C.ar    0  <0>0       -0.0225
      9  C11       11.1350   33.8850   61.4460 C.ar    0  <0>0       -0.0041
     10  C10       10.2090   34.6330   60.7480 C.ar    0  <0>0        0.0042
     11  C15       12.9670   33.6680   63.1370 C.3     0  <0>0        0.0224
     12  C16       12.5520   32.1960   63.1040 C.3     0  <0>0        0.0047
     13  C17       14.3440   33.8260   62.4900 C.3     0  <0>0        0.0047
     14  C3         7.0120   37.0330   59.0270 C.3     0  <0>0        0.1003
     15  C2         5.6060   36.7130   59.5370 C.3     0  <0>0        0.0247
     16  C1         5.6720   35.5270   60.5020 C.3     0  <0>0        0.0021
     17  C4         7.1000   36.7050   57.5580 C.ar    0  <0>0        0.0250
     18  S1         5.8230   36.1200   56.4580 S.2     0  <0>0       -0.0892
     19  C7         6.8020   36.0140   54.9680 C.ar    0  <0>0        0.0352
     20  C6         8.0200   36.4180   55.4040 C.ar    0  <0>0        0.0072
     21  C5         8.1730   36.7730   56.7320 C.ar    0  <0>0        0.0043
@<TRIPOS>BOND
     1    19    20   ar
     2    19    18   ar
     3    20    21   ar
     4    18    17   ar
     5    21    17   ar
     6    17    14    1
     7    14    15    1
     8    14     1    1
     9    15    16    1
    10     1     4    1
    11     1     2   am
    12     3     2    2
    13     2     5    1
    14    10     5   ar
    15    10     9   ar
    16     5     6   ar
    17     9     8   ar
    18     6     7   ar
    19     8     7   ar
    20     8    11    1
    21    13    11    1
    22    12    11    1
