@<TRIPOS>MOLECULE
ZINC39354072_replica-1.pdb
 25 29 0 0 0
SMALL
GASTEIGER

@<TRIPOS>ATOM
      1  C8         5.8220   34.7560   58.6000 C.3     0  <0>0        0.0416
      2  C9         6.7970   35.9210   58.7050 C.3     0  <0>0        0.0157
      3  C10        6.3200   37.1860   59.4610 C.3     0  <0>0        0.0012
      4  C11        7.2310   38.2700   58.7800 C.3     0  <0>0        0.0001
      5  C12        8.6600   37.8340   59.1990 C.3     0  <0>0        0.0009
      6  C13        8.4790   36.6990   60.2390 C.3     0  <0>0        0.0104
      7  C14        7.0500   37.1090   60.8520 C.3     0  <0>0        0.0009
      8  C15        7.9790   35.4400   59.5740 C.3     0  <0>0        0.0544
      9  S1         8.9880   34.2720   58.7040 S.3     0  <0>0       -0.0858
     10  C16        7.8130   33.2710   58.0350 C.2     0  <0>0        0.1588
     11  N1         7.9610   31.9940   57.8530 N.2     0  <0>0       -0.3252
     12  C17        6.9790   31.1570   57.4600 C.1     0  <0>0        0.2347
     13  O3         7.0600   29.9830   57.1420 O.2     0  <0>0       -0.2024
     14  S2         5.5240   32.2060   57.5230 S.3     0  <0>0       -0.0017
     15  C18        6.4420   33.7860   57.6050 C.3     0  <0>0        0.1270
     16  C4         4.4870   35.2380   58.0920 C.ar    0  <0>0       -0.0180
     17  C3         3.3740   35.1710   58.9100 C.ar    0  <0>0        0.0358
     18  C2         2.1450   35.6140   58.4450 C.ar    0  <0>0        0.1718
     19  C7         2.0360   36.1210   57.1530 C.ar    0  <0>0        0.1677
     20  C6         3.1570   36.1910   56.3420 C.ar    0  <0>0        0.0395
     21  C5         4.3780   35.7470   56.8120 C.ar    0  <0>0       -0.0009
     22  O1         1.0490   35.5480   59.2470 O.3     0  <0>0       -0.4684
     23  C1         0.8610   34.3420   59.9900 C.3     0  <0>0        0.2526
     24  O2         0.8320   36.5520   56.6910 O.3     0  <0>0       -0.5029
     25  H13        0.0720   36.1290   57.1140 H       0  <0>0        0.2923
@<TRIPOS>BOND
     1    20    21   ar
     2    20    19   ar
     3    24    25    1
     4    24    19    1
     5    21    16   ar
     6    13    12    2
     7    19    18   ar
     8    12    14    1
     9    12    11    2
    10    14    15    1
    11    15    10    1
    12    15     1    1
    13    11    10    2
    14    10     9    1
    15    16     1    1
    16    16    17   ar
    17    18    17   ar
    18    18    22    1
    19     1     2    1
    20     9     8    1
    21     2     3    1
    22     2     8    1
    23     4     5    1
    24     4     3    1
    25     5     6    1
    26    22    23    1
    27     3     7    1
    28     8     6    1
    29     6     7    1
