@<TRIPOS>MOLECULE
ZINC61891750_replica-1.pdb
 21 22 0 0 0
SMALL
GASTEIGER

@<TRIPOS>ATOM
      1  C10        9.9920   35.2380   59.5240 C.3     0  <0>0        0.0684
      2  C11        9.2210   36.5700   59.4230 C.3     0  <0>0        0.0168
      3  C12        8.3320   36.4000   58.1660 C.3     0  <0>0        0.0025
      4  C13        7.8970   34.9160   58.2540 C.3     0  <0>0        0.0165
      5  C14        9.1510   34.1850   58.7810 C.3     0  <0>0        0.1057
      6  C15        8.7560   33.1110   59.7070 C.1     0  <0>0        0.0734
      7  N2         8.4520   32.2810   60.4210 N.1     0  <0>0       -0.1958
      8  N1        10.1480   34.8540   60.9340 N.3     0  <0>0       -0.2953
      9  H12       10.0350   33.8590   61.0520 H       0  <0>0        0.1235
     10  C2        11.4440   35.3020   61.4600 C.3     0  <0>0        0.0769
     11  C1        11.2210   36.4200   62.4820 C.3     0  <0>0        0.0220
     12  C3        12.1440   34.1460   62.1260 C.ar    0  <0>0       -0.0050
     13  C8        13.4720   34.2570   62.4860 C.ar    0  <0>0        0.0341
     14  C7        14.1130   33.1930   63.1040 C.ar    0  <0>0        0.1440
     15  C6        13.4210   32.0160   63.3490 C.ar    0  <0>0        0.0371
     16  C5        12.0940   31.9070   62.9810 C.ar    0  <0>0        0.0028
     17  C4        11.4550   32.9710   62.3700 C.ar    0  <0>0       -0.0028
     18  O1        15.4190   33.3020   63.4650 O.3     0  <0>0       -0.4236
     19  C9        15.6940   33.9010   64.7330 C.3     0  <0>0        0.5087
     20  F1        15.8330   32.9020   65.7020 F       0  <0>0       -0.1550
     21  F2        16.8790   34.6400   64.6520 F       0  <0>0       -0.1550
@<TRIPOS>BOND
     1     3     4    1
     2     3     2    1
     3     4     5    1
     4     5     1    1
     5     5     6    1
     6     2     1    1
     7     1     8    1
     8     6     7    3
     9     8     9    1
    10     8    10    1
    11    10    12    1
    12    10    11    1
    13    12    17   ar
    14    12    13   ar
    15    17    16   ar
    16    13    14   ar
    17    16    15   ar
    18    14    15   ar
    19    14    18    1
    20    18    19    1
    21    21    19    1
    22    19    20    1
