@<TRIPOS>MOLECULE
ZINC49924551_replica-1.pdb
 25 26 0 0 0
SMALL
GASTEIGER

@<TRIPOS>ATOM
      1  C10        8.9120   36.2960   61.3860 C.3     0  <0>0        0.1344
      2  C9        10.4410   36.3480   61.4030 C.3     0  <0>0        0.0550
      3  C8        11.0020   35.0300   60.8650 C.3     0  <0>0        0.0899
      4  N1        10.6800   33.9460   61.7960 N.pl3   0  <0>0       -0.3326
      5  H8         9.7530   33.7250   61.9810 H       0  <0>0        0.1468
      6  C6        11.7060   33.2310   62.4180 C.ar    0  <0>0        0.0440
      7  C5        11.4800   31.9360   62.8660 C.ar    0  <0>0        0.0100
      8  C4        12.4970   31.2320   63.4810 C.ar    0  <0>0       -0.0209
      9  C3        13.7390   31.8160   63.6500 C.ar    0  <0>0       -0.0084
     10  C21       12.2530   29.8270   63.9670 C.3     0  <0>0        0.0311
     11  C2        13.9680   33.1050   63.2040 C.ar    0  <0>0       -0.0209
     12  C1        15.3230   33.7360   63.3910 C.3     0  <0>0        0.0311
     13  C7        12.9530   33.8170   62.5940 C.ar    0  <0>0        0.0100
     14  C11        8.4180   36.5120   59.9800 C.ar    0  <0>0        0.0043
     15  C16        8.9990   37.4810   59.1830 C.ar    0  <0>0       -0.0023
     16  C15        8.5480   37.6750   57.8900 C.ar    0  <0>0       -0.0045
     17  C14        7.5100   36.9060   57.3980 C.ar    0  <0>0       -0.0228
     18  C13        6.9260   35.9410   58.1960 C.ar    0  <0>0       -0.0045
     19  C12        7.3790   35.7440   59.4870 C.ar    0  <0>0       -0.0023
     20  C17        7.0150   37.1200   55.9900 C.3     0  <0>0        0.0189
     21  C18        5.5660   36.6450   55.8810 C.3     0  <0>0        0.0044
     22  C19        7.0910   38.6100   55.6440 C.3     0  <0>0        0.0044
     23  C20        7.8880   36.3260   55.0170 C.3     0  <0>0        0.0044
     24  O1         8.3910   37.3200   62.2370 O.3     0  <0>0       -0.3800
     25  H26        8.9770   37.5580   62.9680 H       0  <0>0        0.2108
@<TRIPOS>BOND
     1    23    20    1
     2    22    20    1
     3    21    20    1
     4    20    17    1
     5    17    16   ar
     6    17    18   ar
     7    16    15   ar
     8    18    19   ar
     9    15    14   ar
    10    19    14   ar
    11    14     1    1
    12     3     2    1
    13     3     4    1
    14     1     2    1
    15     1    24    1
    16     4     5    1
    17     4     6    1
    18    24    25    1
    19     6    13   ar
    20     6     7   ar
    21    13    11   ar
    22     7     8   ar
    23    11    12    1
    24    11     9   ar
    25     8     9   ar
    26     8    10    1
