@<TRIPOS>MOLECULE
ZINC37881244_replica-1.pdb
 23 24 0 0 0
SMALL
GASTEIGER

@<TRIPOS>ATOM
      1  C10       -2.2260   30.7770   54.9960 C.3     0  <0>0        0.1521
      2  C9        -2.3650   29.9640   53.7080 C.3     0  <0>0        0.1213
      3  N1        -1.0620   29.4060   53.3400 N.pl3   0  <0>0       -0.3307
      4  H11       -0.2560   29.9330   53.4620 H       0  <0>0        0.1469
      5  C8        -0.9780   28.1150   52.8130 C.ar    0  <0>0        0.0406
      6  C3        -0.2710   27.1300   53.4900 C.ar    0  <0>0       -0.0091
      7  C4        -0.1960   25.8540   52.9680 C.ar    0  <0>0       -0.0031
      8  C5        -0.8180   25.5570   51.7700 C.ar    0  <0>0       -0.0002
      9  C6        -1.5180   26.5370   51.0900 C.ar    0  <0>0        0.0012
     10  C7        -1.5980   27.8150   51.6060 C.ar    0  <0>0        0.0140
     11  C2         0.4080   27.4530   54.7960 C.3     0  <0>0        0.0276
     12  C1         0.2820   26.2590   55.7460 C.3     0  <0>0        0.0051
     13  C11       -2.0780   29.8410   56.1680 C.ar    0  <0>0        0.0059
     14  C16       -2.9650   28.7920   56.3310 C.ar    0  <0>0       -0.0022
     15  C15       -2.8250   27.9310   57.4030 C.ar    0  <0>0       -0.0045
     16  C14       -1.8070   28.1240   58.3170 C.ar    0  <0>0       -0.0225
     17  C13       -0.9240   29.1750   58.1570 C.ar    0  <0>0       -0.0045
     18  C12       -1.0600   30.0330   57.0810 C.ar    0  <0>0       -0.0022
     19  C17       -1.6580   27.1870   59.4880 C.3     0  <0>0        0.0224
     20  C18       -1.6920   27.9880   60.7900 C.3     0  <0>0        0.0047
     21  C19       -2.8060   26.1750   59.4810 C.3     0  <0>0        0.0047
     22  O1        -1.0730   31.6160   54.9090 O.3     0  <0>0       -0.3783
     23  H25       -0.3270   31.2130   54.4450 H       0  <0>0        0.2109
@<TRIPOS>BOND
     1     9    10   ar
     2     9     8   ar
     3    10     5   ar
     4     8     7   ar
     5     5     3    1
     6     5     6   ar
     7     7     6   ar
     8     3     4    1
     9     3     2    1
    10     6    11    1
    11     2     1    1
    12    23    22    1
    13    11    12    1
    14    22     1    1
    15     1    13    1
    16    13    14   ar
    17    13    18   ar
    18    14    15   ar
    19    18    17   ar
    20    15    16   ar
    21    17    16   ar
    22    16    19    1
    23    21    19    1
    24    19    20    1
