@<TRIPOS>MOLECULE
ZINC36973160_replica-1.pdb
 19 19 0 0 0
SMALL
GASTEIGER

@<TRIPOS>ATOM
      1  C9         0.0570   28.2410   54.8280 C.ar    0  <0>0        0.0453
      2  C10        0.5850   26.9860   55.1060 C.ar    0  <0>0        0.0152
      3  C11        0.4150   25.9450   54.2110 C.ar    0  <0>0        0.0133
      4  C12       -0.2810   26.1470   53.0340 C.ar    0  <0>0        0.0673
      5  C13       -0.8160   27.4060   52.7470 C.ar    0  <0>0        0.0802
      6  C14       -0.6480   28.4530   53.6540 C.ar    0  <0>0        0.0254
      7  C15       -1.5380   27.6180   51.5290 C.1     0  <0>0        0.1013
      8  N2        -2.1100   27.7870   50.5620 N.1     0  <0>0       -0.1908
      9 Cl         -0.4910   24.8380   51.9140 Cl      0  <0>0       -0.0815
     10  N1         0.2320   29.2890   55.7370 N.pl3   0  <0>0       -0.3340
     11  H18        1.0780   29.7610   55.7750 H       0  <0>0        0.1468
     12  C6        -0.8620   29.6730   56.6320 C.3     0  <0>0        0.0690
     13  C5        -1.9490   28.5960   56.5990 C.3     0  <0>0        0.0195
     14  C3        -2.1760   28.0590   58.0140 C.3     0  <0>0        0.0016
     15  C4        -1.2000   28.7360   58.9790 C.3     0  <0>0        0.0001
     16  C2        -1.9420   26.5460   58.0290 C.3     0  <0>0        0.0001
     17  C1        -0.4870   26.2590   58.4040 C.3     0  <0>0        0.0000
     18  C7        -1.4530   31.0070   56.1720 C.3     0  <0>0        0.0195
     19  C8        -2.8820   30.7860   55.6690 C.3     0  <0>0        0.0017
@<TRIPOS>BOND
     1     8     7    3
     2     7     5    1
     3     9     4    1
     4     5     4   ar
     5     5     6   ar
     6     4     3   ar
     7     6     1   ar
     8     3     2   ar
     9     1     2   ar
    10     1    10    1
    11    19    18    1
    12    10    11    1
    13    10    12    1
    14    18    12    1
    15    13    12    1
    16    13    14    1
    17    14    16    1
    18    14    15    1
    19    16    17    1
