@<TRIPOS>MOLECULE
ZINC46983560_replica-1.pdb
 27 29 0 0 0
SMALL
GASTEIGER

@<TRIPOS>ATOM
      1  C9         5.1580   34.1700   55.1860 C.3     0  <0>0        0.0983
      2  C10        5.0510   34.4770   53.6920 C.3     0  <0>0        0.0263
      3  N2         3.8810   34.4660   55.8390 N.am    0  <0>0       -0.2865
      4  C8         3.1990   33.4830   56.4610 C.2     0  <0>0        0.3041
      5  N1         2.0230   33.7560   57.0620 N.am    0  <0>0       -0.2642
      6  O1         3.6440   32.3530   56.4800 O.2     0  <0>0       -0.2526
      7  H16        3.5250   35.3680   55.8230 H       0  <0>0        0.1512
      8  C3         1.4860   35.1190   57.0380 C.3     0  <0>0        0.0949
      9  C2         1.5170   35.7040   58.4510 C.3     0  <0>0        0.0216
     10  C1         2.9380   36.1630   58.7820 C.3     0  <0>0        0.0018
     11  C4         1.2820   32.6880   57.7380 C.3     0  <0>0        0.0949
     12  C5        -0.0700   32.4910   57.0480 C.3     0  <0>0        0.0199
     13  C7        -0.0810   31.7300   55.7200 C.3     0  <0>0        0.0018
     14  C6        -0.6290   31.0690   56.9860 C.3     0  <0>0        0.0018
     15  C11        6.2430   35.0200   55.7960 C.ar    0  <0>0        0.0300
     16  C13        6.8070   34.8380   57.0130 C.ar    0  <0>0        0.0599
     17  N4         7.7350   35.8060   57.1850 N.ar    0  <0>0       -0.2339
     18  C14        6.4640   33.7500   57.9980 C.3     0  <0>0        0.0519
     19  N3         7.7340   36.6130   56.0400 N.ar    0  <0>0       -0.1641
     20  C12        6.8390   36.1410   55.2080 C.ar    0  <0>0        0.1190
     21  C15        8.5510   35.9760   58.3130 C.ar    0  <0>0        0.0826
     22  C20        8.4140   37.1060   59.1070 C.ar    0  <0>0        0.0214
     23  C19        9.2150   37.2690   60.2200 C.ar    0  <0>0        0.0312
     24  C18       10.1640   36.3110   60.5380 C.ar    0  <0>0        0.1402
     25  C17       10.3060   35.1860   59.7430 C.ar    0  <0>0        0.0312
     26  F1        10.9500   36.4750   61.6230 F       0  <0>0       -0.2042
     27  C16        9.5030   35.0160   58.6330 C.ar    0  <0>0        0.0214
@<TRIPOS>BOND
     1     2     1    1
     2     1    15    1
     3     1     3    1
     4    20    15   ar
     5    20    19   ar
     6    13    14    1
     7    13    12    1
     8    15    16   ar
     9     7     3    1
    10     3     4   am
    11    19    17   ar
    12     4     6    2
    13     4     5   am
    14    14    12    1
    15    16    17   ar
    16    16    18    1
    17     8     5    1
    18     8     9    1
    19    12    11    1
    20     5    11    1
    21    17    21    1
    22    21    27   ar
    23    21    22   ar
    24     9    10    1
    25    27    25   ar
    26    22    23   ar
    27    25    24   ar
    28    23    24   ar
    29    24    26    1
