@<TRIPOS>MOLECULE
ZINC22229813_replica-1.pdb
 26 27 0 0 0
SMALL
GASTEIGER

@<TRIPOS>ATOM
      1  C8         0.8000   30.0940   58.5320 C.3     0  <0>0        0.0860
      2  C7         0.4250   31.5620   58.3140 C.3     0  <0>0        0.0254
      3  C3         1.5690   32.2790   57.6450 C.3     0  <0>0        0.1253
      4  C2         2.5180   32.9190   58.3880 C.2     0  <0>0        0.0976
      5  C1         2.4250   32.9130   59.8930 C.3     0  <0>0        0.0620
      6  N2         3.5210   33.5530   57.7880 N.2     0  <0>0       -0.3889
      7  C5         3.6330   33.5720   56.4740 C.2     0  <0>0        0.2122
      8  N1         2.7160   32.9510   55.6810 N.am    0  <0>0       -0.2542
      9  C4         1.6760   32.2980   56.2420 C.2     0  <0>0        0.2342
     10  H1         2.8090   32.9780   54.7150 H       0  <0>0        0.1577
     11  O1         0.8450   31.7370   55.5470 O.2     0  <0>0       -0.2743
     12  S1         4.9870   34.4210   55.7310 S.3     0  <0>0       -0.0660
     13  C6         4.3950   34.8190   54.0640 C.3     0  <0>0        0.0780
     14  C9        -0.0890   29.2190   57.6860 C.2     0  <0>0        0.2225
     15  O2        -1.1940   28.9150   58.0800 O.2     0  <0>0       -0.2751
     16  N3         0.3460   28.7750   56.4900 N.am    0  <0>0       -0.3040
     17  H13        1.2300   29.0190   56.1740 H       0  <0>0        0.1494
     18  C10       -0.5170   27.9250   55.6670 C.3     0  <0>0        0.0937
     19  C11        0.3440   27.1140   54.6950 C.3     0  <0>0        0.0419
     20  C12        0.5800   25.7150   55.2670 C.3     0  <0>0        0.0064
     21  C13       -0.3660   27.0020   53.3690 C.ar    0  <0>0       -0.0208
     22  C18       -1.0330   28.0940   52.8480 C.ar    0  <0>0       -0.0042
     23  C17       -1.6800   27.9930   51.6300 C.ar    0  <0>0       -0.0003
     24  C16       -1.6660   26.7950   50.9390 C.ar    0  <0>0       -0.0000
     25  C15       -1.0030   25.7010   51.4630 C.ar    0  <0>0       -0.0003
     26  C14       -0.3530   25.8050   52.6790 C.ar    0  <0>0       -0.0042
@<TRIPOS>BOND
     1    24    25   ar
     2    24    23   ar
     3    25    26   ar
     4    23    22   ar
     5    26    21   ar
     6    22    21   ar
     7    21    19    1
     8    13    12    1
     9    19    20    1
    10    19    18    1
    11    10     8    1
    12    11     9    2
    13    18    16    1
    14     8     9   am
    15     8     7    1
    16    12     7    1
    17    17    16    1
    18     9     3    1
    19     7     6    2
    20    16    14   am
    21     3     2    1
    22     3     4    1
    23    14    15    2
    24    14     1    1
    25     6     4    2
    26     2     1    1
    27     4     5    1
