@<TRIPOS>MOLECULE
ZINC37360268_replica-1.pdb
 21 22 0 0 0
SMALL
GASTEIGER

@<TRIPOS>ATOM
      1  C1         9.3690   34.8350   59.5670 C.ar    0  <0>0       -0.0052
      2  C2         9.9820   33.8860   60.3610 C.ar    0  <0>0        0.0060
      3  C3        10.7150   34.2800   61.4720 C.ar    0  <0>0        0.0327
      4  C4        10.8280   35.6310   61.7830 C.ar    0  <0>0        0.0060
      5  C5        10.2130   36.5750   60.9850 C.ar    0  <0>0       -0.0052
      6  C6         9.4840   36.1780   59.8790 C.ar    0  <0>0       -0.0309
      7  C7         8.8130   37.2110   59.0110 C.3     0  <0>0        0.0712
      8  C8         7.6390   37.8020   59.7500 C.2     0  <0>0        0.3498
      9  O1         7.2020   38.8930   59.4260 O.co2   0  <0>0       -0.2476
     10  O2         7.1260   37.1890   60.6700 O.co2   0  <0>0       -0.2476
     11  N1         8.3410   36.5780   57.7720 N.4     0  <0>0        0.3979
     12  C12        8.5800   37.4750   56.6190 C.3     0  <0>0       -0.0761
     13  C11        7.4000   37.2860   55.6490 C.3     0  <0>0       -0.0249
     14  C10        6.4720   36.2570   56.3360 C.3     0  <0>0       -0.0249
     15  C9         6.8710   36.3740   57.8280 C.3     0  <0>0       -0.0761
     16  H14        8.8110   35.6980   57.6290 H       0  <0>0       -0.0784
     17  S1        11.5000   33.0720   62.4880 S.3     0  <0>0       -0.0144
     18  C13       13.2200   33.6360   62.5930 C.3     0  <0>0        0.4477
     19  F1        14.0570   32.5400   62.8290 F       0  <0>0       -0.1600
     20  F2        13.5830   34.2510   61.3890 F       0  <0>0       -0.1600
     21  F3        13.3470   34.5540   63.6410 F       0  <0>0       -0.1600
@<TRIPOS>BOND
     1    13    14    1
     2    13    12    1
     3    14    15    1
     4    12    11    1
     5    16    11    1
     6    11    15    1
     7    11     7    1
     8     7     8    1
     9     7     6    1
    10     9     8   ar
    11     1     6   ar
    12     1     2   ar
    13     8    10   ar
    14     6     5   ar
    15     2     3   ar
    16     5     4   ar
    17    20    18    1
    18     3     4   ar
    19     3    17    1
    20    17    18    1
    21    18    19    1
    22    18    21    1
