@<TRIPOS>MOLECULE
ZINC54824599_replica-1.pdb
 20 21 0 0 0
SMALL
GASTEIGER

@<TRIPOS>ATOM
      1  C7        -1.0630   27.8300   56.1360 C.3     0  <0>0        0.0831
      2  C8        -1.9180   28.8990   56.8480 C.3     0  <0>0        0.0206
      3  C9        -1.7280   28.5970   58.3550 C.3     0  <0>0        0.0029
      4  C10       -0.2350   28.1900   58.4360 C.3     0  <0>0        0.0168
      5  C11        0.0060   27.3770   57.1460 C.3     0  <0>0        0.1092
      6  C12       -0.1360   25.9380   57.4210 C.1     0  <0>0        0.0738
      7  N2        -0.2470   24.8280   57.6330 N.1     0  <0>0       -0.1958
      8  N1        -0.4230   28.4050   54.9510 N.pl3   0  <0>0       -0.3325
      9  H6         0.2570   29.0910   55.0510 H       0  <0>0        0.1468
     10  C4        -0.7910   27.9660   53.6760 C.ar    0  <0>0        0.0592
     11  C3        -1.6140   28.7520   52.8800 C.ar    0  <0>0        0.0853
     12  C2        -1.9750   28.3150   51.6200 C.ar    0  <0>0        0.0051
     13  C1        -1.5180   27.0980   51.1510 C.ar    0  <0>0        0.0009
     14  C6        -0.6970   26.3130   51.9400 C.ar    0  <0>0        0.0126
     15  C5        -0.3320   26.7430   53.2020 C.ar    0  <0>0        0.0707
     16 Cl          0.6970   25.7570   54.1920 Cl      0  <0>0       -0.0810
     17  C13       -2.1130   30.0800   53.3900 C.3     0  <0>0        0.4197
     18  F1        -2.7070   30.7880   52.3400 F       0  <0>0       -0.1658
     19  F2        -3.0560   29.8660   54.4010 F       0  <0>0       -0.1658
     20  F3        -1.0390   30.8160   53.9010 F       0  <0>0       -0.1658
@<TRIPOS>BOND
     1    13    12   ar
     2    13    14   ar
     3    12    11   ar
     4    14    15   ar
     5    18    17    1
     6    11    17    1
     7    11    10   ar
     8    15    10   ar
     9    15    16    1
    10    17    20    1
    11    17    19    1
    12    10     8    1
    13     8     9    1
    14     8     1    1
    15     1     2    1
    16     1     5    1
    17     2     3    1
    18     5     6    1
    19     5     4    1
    20     6     7    3
    21     3     4    1
