@<TRIPOS>MOLECULE
ZINC37073206_replica-1.pdb
 21 22 0 0 0
SMALL
GASTEIGER

@<TRIPOS>ATOM
      1  C8        -0.8980   31.3200   55.7760 C.2     0  <0>0        0.0675
      2  C9        -2.1130   30.8450   55.2870 C.2     0  <0>0        0.1214
      3  N2        -2.1120   29.8350   54.4350 N.2     0  <0>0       -0.1915
      4  C10       -0.9750   29.2750   54.0460 C.1     0  <0>0        0.0312
      5  N3         0.2000   29.6990   54.4920 N.2     0  <0>0       -0.2137
      6  C11        0.2770   30.7100   55.3410 C.3     0  <0>0        0.1784
      7  N1        -0.8570   32.3860   56.6770 N.pl3   0  <0>0       -0.3345
      8  H16       -1.6770   32.8390   56.9310 H       0  <0>0        0.1466
      9  C2         0.4240   32.8230   57.2390 C.3     0  <0>0        0.0689
     10  C1         0.5960   32.2290   58.6390 C.3     0  <0>0        0.0212
     11  C3         0.4490   34.3500   57.3260 C.3     0  <0>0        0.0195
     12  C4         1.0100   34.7760   58.6840 C.3     0  <0>0        0.0017
     13  C5         2.1890   35.7270   58.4720 C.3     0  <0>0        0.0001
     14  C6         3.4840   35.0430   58.9160 C.3     0  <0>0        0.0000
     15  C7         2.2880   36.0940   56.9900 C.3     0  <0>0        0.0000
     16  C12       -1.0180   28.1430   53.0890 C.ar    0  <0>0        0.0621
     17  C17       -0.3410   26.9590   53.3770 C.ar    0  <0>0        0.0100
     18  C16       -0.3890   25.9070   52.4840 C.ar    0  <0>0        0.0007
     19  C15       -1.0970   26.0290   51.3030 C.ar    0  <0>0        0.0000
     20  C14       -1.7660   27.2040   51.0110 C.ar    0  <0>0        0.0007
     21  C13       -1.7300   28.2610   51.8980 C.ar    0  <0>0        0.0100
@<TRIPOS>BOND
     1    20    19   ar
     2    20    21   ar
     3    19    18   ar
     4    21    16   ar
     5    18    17   ar
     6    16    17   ar
     7    16     4    1
     8     4     3    2
     9     4     5    2
    10     3     2    1
    11     5     6    1
    12     2     1    2
    13     6     1    1
    14     1     7    1
    15     7     8    1
    16     7     9    1
    17    15    13    1
    18     9    11    1
    19     9    10    1
    20    11    12    1
    21    13    12    1
    22    13    14    1
