@<TRIPOS>MOLECULE
ZINC32183486_replica-1.pdb
 24 25 0 0 0
SMALL
GASTEIGER

@<TRIPOS>ATOM
      1  C9        -0.3180   30.9710   54.8120 C.3     0  <0>0        0.1735
      2  C8        -1.0240   29.9900   53.8730 C.3     0  <0>0        0.1206
      3  N1        -0.4570   28.6510   54.0480 N.pl3   0  <0>0       -0.3309
      4  H9         0.1650   28.4280   54.9290 H       0  <0>0        0.1469
      5  C7        -0.7040   27.6570   53.0990 C.ar    0  <0>0        0.0406
      6  C2        -0.2110   26.3730   53.2910 C.ar    0  <0>0       -0.0087
      7  C1         0.5910   26.0490   54.5240 C.3     0  <0>0        0.0323
      8  C3        -0.4590   25.3920   52.3500 C.ar    0  <0>0       -0.0030
      9  C4        -1.1970   25.6880   51.2180 C.ar    0  <0>0       -0.0002
     10  C5        -1.6890   26.9650   51.0240 C.ar    0  <0>0        0.0012
     11  C6        -1.4490   27.9490   51.9630 C.ar    0  <0>0        0.0140
     12  C10       -1.1520   31.1500   56.0810 C.3     0  <0>0        0.2361
     13  O1        -2.1890   30.1670   56.1120 O.3     0  <0>0       -0.4728
     14  C11       -2.1290   29.2390   57.1030 C.ar    0  <0>0        0.1384
     15  C16       -1.2390   29.4010   58.1560 C.ar    0  <0>0        0.0326
     16  C15       -1.1830   28.4590   59.1640 C.ar    0  <0>0       -0.0195
     17  C14       -2.0060   27.3480   59.1200 C.ar    0  <0>0       -0.0041
     18  C13       -2.8900   27.1810   58.0690 C.ar    0  <0>0        0.0028
     19  C12       -2.9520   28.1230   57.0610 C.ar    0  <0>0        0.0369
     20  C17       -0.2210   28.6390   60.3090 C.3     0  <0>0        0.0225
     21  C18       -0.7380   29.7360   61.2410 C.3     0  <0>0        0.0047
     22  C19       -0.1020   27.3250   61.0860 C.3     0  <0>0        0.0047
     23  O2         0.9690   30.4550   55.1570 O.3     0  <0>0       -0.3791
     24  H25        1.7010   30.2320   54.3670 H       0  <0>0        0.2106
@<TRIPOS>BOND
     1    10     9   ar
     2    10    11   ar
     3     9     8   ar
     4    11     5   ar
     5     8     6   ar
     6     5     6   ar
     7     5     3    1
     8     6     7    1
     9     2     3    1
    10     2     1    1
    11     3     4    1
    12    24    23    1
    13     1    23    1
    14     1    12    1
    15    12    13    1
    16    13    14    1
    17    19    14   ar
    18    19    18   ar
    19    14    15   ar
    20    18    17   ar
    21    15    16   ar
    22    17    16   ar
    23    16    20    1
    24    20    22    1
    25    20    21    1
