@<TRIPOS>MOLECULE
ZINC48139714_replica-1.pdb
 28 30 0 0 0
SMALL
GASTEIGER

@<TRIPOS>ATOM
      1  N1        -1.7230   29.9760   54.6520 N.am    0  <0>0       -0.2600
      2  C9        -2.7290   29.2830   55.4600 C.3     0  <0>0        0.1167
      3  C10       -0.8270   30.7900   55.2430 C.2     0  <0>0        0.3079
      4  O1         0.0080   31.3650   54.5720 O.2     0  <0>0       -0.2522
      5  N2        -0.8550   30.9670   56.5790 N.am    0  <0>0       -0.2681
      6  H11       -1.5620   30.5620   57.1070 H       0  <0>0        0.1564
      7  C2        -1.6910   29.7850   53.1990 C.3     0  <0>0        0.1017
      8  C1        -3.0930   30.0000   52.6260 C.3     0  <0>0        0.0266
      9  C3        -1.2310   28.3840   52.8870 C.ar    0  <0>0        0.0255
     10  C8        -1.5820   27.7910   51.6870 C.ar    0  <0>0        0.1378
     11  C7        -1.1550   26.5050   51.3990 C.ar    0  <0>0        0.0317
     12  F1        -2.3380   28.4670   50.7940 F       0  <0>0       -0.2044
     13  C6        -0.3870   25.8110   52.3140 C.ar    0  <0>0        0.0319
     14  C5        -0.0400   26.4030   53.5170 C.ar    0  <0>0        0.1400
     15  C4        -0.4620   27.6900   53.8020 C.ar    0  <0>0        0.0292
     16  F2         0.7110   25.7240   54.4120 F       0  <0>0       -0.2042
     17  C11        0.1360   31.7350   57.2060 C.ar    0  <0>0        0.0539
     18  C16       -0.1290   33.0500   57.5640 C.ar    0  <0>0        0.0456
     19  C15        0.8460   33.8060   58.1870 C.ar    0  <0>0        0.1545
     20  C14        2.0950   33.2510   58.4470 C.ar    0  <0>0        0.0757
     21  F3         0.5880   35.0850   58.5390 F       0  <0>0       -0.2028
     22  C13        2.3590   31.9380   58.0840 C.ar    0  <0>0        0.0181
     23  C12        1.3820   31.1810   57.4660 C.ar    0  <0>0        0.0161
     24  N3         3.0850   34.0180   59.0740 N.pl3   0  <0>0       -0.3058
     25  C20        3.5910   33.8130   60.4420 C.3     0  <0>0        0.0909
     26  C19        5.0110   34.4380   60.4350 C.3     0  <0>0        0.0232
     27  C18        4.7990   35.6770   59.5250 C.3     0  <0>0        0.0232
     28  C17        3.7840   35.1670   58.4790 C.3     0  <0>0        0.0909
@<TRIPOS>BOND
     1    12    10    1
     2    11    10   ar
     3    11    13   ar
     4    10     9   ar
     5    13    14   ar
     6     8     7    1
     7     9     7    1
     8     9    15   ar
     9     7     1    1
    10    14    15   ar
    11    14    16    1
    12     4     3    2
    13     1     3   am
    14     1     2    1
    15     3     5   am
    16     5     6    1
    17     5    17    1
    18    17    23   ar
    19    17    18   ar
    20    23    22   ar
    21    18    19   ar
    22    22    20   ar
    23    19    20   ar
    24    19    21    1
    25    20    24    1
    26    28    24    1
    27    28    27    1
    28    24    25    1
    29    27    26    1
    30    26    25    1
