@<TRIPOS>MOLECULE
ZINC59924063_replica-1.pdb
 29 31 0 0 0
SMALL
GASTEIGER

@<TRIPOS>ATOM
      1  N1         5.4650   36.1320   57.3480 N.am    0  <0>0       -0.3042
      2  C4         6.3330   35.9510   56.3340 C.2     0  <0>0        0.2261
      3  O1         6.1240   35.0950   55.5020 O.2     0  <0>0       -0.2748
      4  H8         5.6320   36.8180   58.0150 H       0  <0>0        0.1494
      5  C5         7.5640   36.8150   56.2340 C.3     0  <0>0        0.0987
      6  C6         7.1590   38.2390   55.8500 C.3     0  <0>0        0.0143
      7  C7         8.2710   36.8360   57.5650 C.ar    0  <0>0       -0.0139
      8  C16        8.9520   35.7320   57.9800 C.ar    0  <0>0       -0.0038
      9  C15        9.6160   35.7490   59.2180 C.ar    0  <0>0       -0.0001
     10  C10        9.5580   36.9150   60.0210 C.ar    0  <0>0        0.0030
     11  C14       10.3330   34.6300   59.6760 C.ar    0  <0>0        0.0031
     12  C9         8.8420   38.0340   59.5620 C.ar    0  <0>0       -0.0002
     13  C11       10.2170   36.9330   61.2610 C.ar    0  <0>0        0.0369
     14  C8         8.2140   37.9830   58.3560 C.ar    0  <0>0       -0.0038
     15  C12       10.9040   35.8280   61.6760 C.ar    0  <0>0        0.1387
     16  C13       10.9600   34.6780   60.8810 C.ar    0  <0>0        0.0369
     17  O2        11.5410   35.8450   62.8760 O.3     0  <0>0       -0.4714
     18  C17       12.4460   34.7720   63.1460 C.3     0  <0>0        0.2525
     19  C3         4.2680   35.2930   57.4470 C.3     0  <0>0        0.0872
     20  C2         4.2340   34.6100   58.8160 C.3     0  <0>0       -0.0012
     21  C1         5.2470   35.2820   59.7450 C.3     0  <0>0       -0.0004
     22  C18        4.5920   33.1310   58.6560 C.3     0  <0>0       -0.0756
     23  N2         6.0460   32.9630   58.7770 N.4     0  <0>0        0.3869
     24  C23        6.3430   32.0570   59.8930 C.3     0  <0>0       -0.0774
     25  C22        7.8570   31.9430   60.0740 C.3     0  <0>0       -0.0229
     26  C21        8.4800   31.3920   58.7890 C.3     0  <0>0       -0.0043
     27  C20        8.1020   32.3040   57.6180 C.3     0  <0>0       -0.0229
     28  C19        6.5770   32.4050   57.5280 C.3     0  <0>0       -0.0774
     29  H33        6.4740   33.8610   58.9500 H       0  <0>0       -0.0797
@<TRIPOS>BOND
     1     3     2    2
     2     6     5    1
     3     5     2    1
     4     5     7    1
     5     2     1   am
     6     1    19    1
     7     1     4    1
     8    19    20    1
     9    28    27    1
    10    28    23    1
    11     7     8   ar
    12     7    14   ar
    13    27    26    1
    14     8     9   ar
    15    14    12   ar
    16    22    23    1
    17    22    20    1
    18    23    29    1
    19    23    24    1
    20    26    25    1
    21    20    21    1
    22     9    11   ar
    23     9    10   ar
    24    12    10   ar
    25    11    16   ar
    26    24    25    1
    27    10    13   ar
    28    16    15   ar
    29    13    15   ar
    30    15    17    1
    31    17    18    1
