@<TRIPOS>MOLECULE
ZINC39970475_replica-1.pdb
 26 27 0 0 0
SMALL
GASTEIGER

@<TRIPOS>ATOM
      1  C11        0.9420   31.0840   55.9200 C.2     0  <0>0        0.1316
      2  S1         0.6920   30.5680   57.5330 S.2     0  <0>0       -0.0189
      3  N2         1.6440   32.2070   55.6730 N.am    0  <0>0       -0.3158
      4  H15        1.7870   32.4990   54.7580 H       0  <0>0        0.1485
      5  N1         0.4360   30.3670   54.8960 N.am    0  <0>0       -0.3140
      6  H14        0.8340   30.4330   54.0150 H       0  <0>0        0.1487
      7  C9        -0.7150   29.4880   55.1170 C.3     0  <0>0        0.0929
      8  C10       -2.0070   30.2720   54.8780 C.3     0  <0>0        0.0261
      9  C5        -0.6500   28.3250   54.1620 C.ar    0  <0>0       -0.0085
     10  C4        -1.2220   28.4270   52.9070 C.ar    0  <0>0       -0.0033
     11  C3        -1.1600   27.3610   52.0300 C.ar    0  <0>0       -0.0045
     12  C2        -0.5250   26.1920   52.4080 C.ar    0  <0>0       -0.0222
     13  C1        -0.4580   25.0300   51.4510 C.3     0  <0>0        0.0310
     14  C7         0.0430   26.0880   53.6640 C.ar    0  <0>0       -0.0088
     15  C6        -0.0150   27.1560   54.5390 C.ar    0  <0>0       -0.0246
     16  C8         0.6090   27.0450   55.9050 C.3     0  <0>0        0.0307
     17  C12        2.1950   32.9870   56.7840 C.3     0  <0>0        0.0931
     18  C13        2.1610   34.4750   56.4300 C.3     0  <0>0        0.0475
     19  C14        3.5300   34.9160   55.9790 C.ar    0  <0>0       -0.0203
     20  C19        4.2320   35.8500   56.7190 C.ar    0  <0>0       -0.0011
     21  C18        5.4900   36.2520   56.3110 C.ar    0  <0>0        0.0366
     22  C17        6.0430   35.7250   55.1530 C.ar    0  <0>0        0.1387
     23  C16        5.3340   34.7930   54.4090 C.ar    0  <0>0        0.0366
     24  C15        4.0790   34.3910   54.8250 C.ar    0  <0>0       -0.0011
     25  O1         7.2780   36.1210   54.7480 O.3     0  <0>0       -0.4714
     26  C20        8.2140   36.4740   55.7690 C.3     0  <0>0        0.2525
@<TRIPOS>BOND
     1    13    12    1
     2    11    12   ar
     3    11    10   ar
     4    12    14   ar
     5    10     9   ar
     6    14    15   ar
     7     6     5    1
     8     9    15   ar
     9     9     7    1
    10    23    24   ar
    11    23    22   ar
    12    15    16    1
    13    25    22    1
    14    25    26    1
    15     4     3    1
    16    24    19   ar
    17     8     7    1
    18     5     7    1
    19     5     1    1
    20    22    21   ar
    21     3     1    1
    22     3    17    1
    23     1     2    2
    24    19    18    1
    25    19    20   ar
    26    21    20   ar
    27    18    17    1
