@<TRIPOS>MOLECULE
ZINC57270745_replica-1.pdb
 29 31 0 0 0
SMALL
GASTEIGER

@<TRIPOS>ATOM
      1  N2         2.3570   33.0370   55.5980 N.pl3   0  <0>0       -0.2378
      2  C11        1.6430   32.1720   56.4080 C.1     0  <0>0        0.2040
      3  N3         1.8180   32.2390   57.7140 N.2     0  <0>0       -0.3317
      4  C12        1.1450   31.4170   58.5330 C.2     0  <0>0        0.1343
      5  C13        1.3060   31.4620   59.9240 C.2     0  <0>0        0.0293
      6  C14        0.5970   30.6040   60.7110 C.2     0  <0>0        0.0020
      7  C15       -0.2860   29.6820   60.1550 C.2     0  <0>0       -0.0036
      8  C16       -0.4660   29.6120   58.8050 C.2     0  <0>0       -0.0109
      9  C17        0.2460   30.4790   57.9690 C.3     0  <0>0        0.1428
     10  C18        0.0990   30.4520   56.5590 C.2     0  <0>0        0.1842
     11  N4         0.8060   31.3100   55.8380 N.2     0  <0>0       -0.3166
     12  H15        2.1870   33.0610   54.6440 H       0  <0>0        0.1657
     13  C8         3.3250   33.8790   56.1560 C.ar    0  <0>0        0.0585
     14  C7         2.9730   35.1490   56.5950 C.ar    0  <0>0        0.0165
     15  C6         3.9310   35.9780   57.1460 C.ar    0  <0>0        0.0143
     16  C5         5.2390   35.5440   57.2610 C.ar    0  <0>0        0.0315
     17  C10        5.5940   34.2820   56.8200 C.ar    0  <0>0        0.0143
     18  C9         4.6400   33.4460   56.2730 C.ar    0  <0>0        0.0165
     19  N1         6.2060   36.3850   57.8180 N.pl3   0  <0>0       -0.3758
     20  H30        5.9450   37.3470   57.6620 H       0  <0>0        0.1277
     21  C2         6.3030   36.1310   59.2620 C.3     0  <0>0        0.0726
     22  C1         5.8890   37.3870   60.0300 C.3     0  <0>0        0.0215
     23  C3         7.5060   36.1220   57.1850 C.3     0  <0>0        0.0726
     24  C4         8.3210   37.4150   57.1370 C.3     0  <0>0        0.0215
     25  N5        -0.7620   29.5610   55.9550 N.pl3   0  <0>0       -0.2857
     26  C19       -2.1490   29.9490   55.6860 C.3     0  <0>0        0.0929
     27  C20       -3.0940   28.9100   56.2900 C.3     0  <0>0        0.0232
     28  C21       -0.2880   28.2260   55.5810 C.3     0  <0>0        0.0929
     29  C22       -0.1660   28.1360   54.0590 C.3     0  <0>0        0.0232
@<TRIPOS>BOND
     1    29    28    1
     2    12     1    1
     3    28    25    1
     4     1    13    1
     5     1     2    1
     6    26    25    1
     7    26    27    1
     8    11     2    2
     9    11    10    2
    10    25    10    1
    11    13    18   ar
    12    13    14   ar
    13    18    17   ar
    14     2     3    2
    15    10     9    1
    16    14    15   ar
    17    17    16   ar
    18    24    23    1
    19    15    16   ar
    20    23    19    1
    21    16    19    1
    22    20    19    1
    23     3     4    2
    24    19    21    1
    25     9     4    1
    26     9     8    1
    27     4     5    1
    28     8     7    2
    29    21    22    1
    30     5     6    2
    31     7     6    1
