@<TRIPOS>MOLECULE
ZINC66154773_replica-1.pdb
 22 23 0 0 0
SMALL
GASTEIGER

@<TRIPOS>ATOM
      1  N1         0.8040   30.9190   55.6460 N.pl3   0  <0>0       -0.3298
      2  H11        1.4440   30.2230   55.4290 H       0  <0>0        0.1469
      3  C6         0.9620   31.6760   56.8130 C.ar    0  <0>0        0.0449
      4  C5         0.6400   33.0270   56.8120 C.ar    0  <0>0        0.0174
      5  C4         0.7950   33.7740   57.9640 C.ar    0  <0>0        0.0382
      6  C3         1.2710   33.1750   59.1200 C.ar    0  <0>0        0.1386
      7  C8         1.5970   31.8270   59.1200 C.ar    0  <0>0        0.0382
      8  C7         1.4380   31.0770   57.9720 C.ar    0  <0>0        0.0174
      9  O1         1.4240   33.9110   60.2540 O.3     0  <0>0       -0.4755
     10  C2         0.9280   33.3430   61.4670 C.3     0  <0>0        0.2055
     11  C1        -0.4300   33.9660   61.8030 C.3     0  <0>0        0.0512
     12  C9        -0.3290   31.1770   54.7540 C.3     0  <0>0        0.1312
     13  C10       -1.1860   29.9150   54.6400 C.3     0  <0>0        0.1854
     14  C11       -2.4900   30.1110   55.4170 C.3     0  <0>0        0.0491
     15  O2        -1.4850   29.6660   53.2640 O.3     0  <0>0       -0.4774
     16  C12       -1.2500   28.4100   52.7990 C.ar    0  <0>0        0.1384
     17  C17       -1.7950   28.0050   51.5900 C.ar    0  <0>0        0.0366
     18  C16       -1.5500   26.7310   51.1160 C.ar    0  <0>0       -0.0011
     19  C15       -0.7750   25.8550   51.8540 C.ar    0  <0>0       -0.0217
     20  C14       -0.2360   26.2540   53.0630 C.ar    0  <0>0       -0.0011
     21  C18       -0.5150   24.4630   51.3380 C.3     0  <0>0        0.0310
     22  C13       -0.4720   27.5310   53.5370 C.ar    0  <0>0        0.0366
@<TRIPOS>BOND
     1    18    17   ar
     2    18    19   ar
     3    21    19    1
     4    17    16   ar
     5    19    20   ar
     6    16    15    1
     7    16    22   ar
     8    20    22   ar
     9    15    13    1
    10    13    12    1
    11    13    14    1
    12    12     1    1
    13     2     1    1
    14     1     3    1
    15     4     3   ar
    16     4     5   ar
    17     3     8   ar
    18     5     6   ar
    19     8     7   ar
    20     7     6   ar
    21     6     9    1
    22     9    10    1
    23    10    11    1
