@<TRIPOS>MOLECULE
ZINC21243860_replica-1.pdb
 36 40 0 0 0
SMALL
GASTEIGER

@<TRIPOS>ATOM
      1  C10        9.7100   36.1180   60.5090 C.3     0  <0>0        0.0356
      2  C11        9.4770   35.0270   59.4660 C.3     0  <0>0        0.0458
      3  C12        8.3830   35.4550   58.5030 C.2     0  <0>0        0.0262
      4  C13        7.3670   36.2250   58.9270 C.2     0  <0>0        0.0436
      5  C14        6.2040   36.6990   58.0880 C.3     0  <0>0        0.1186
      6  N1         6.3660   36.4840   56.6650 N.pl3   0  <0>0       -0.3262
      7  C15        6.4440   35.1980   56.1360 C.ar    0  <0>0        0.0586
      8  C16        5.4450   34.6900   55.3210 C.ar    0  <0>0        0.0156
      9  C17        5.5340   33.3860   54.8670 C.ar    0  <0>0        0.0013
     10  C18        6.6010   32.5880   55.2340 C.ar    0  <0>0        0.0014
     11  C19        7.6000   33.0910   56.0500 C.ar    0  <0>0        0.0158
     12  C20        7.5280   34.4050   56.4780 C.ar    0  <0>0        0.0614
     13  N2         8.5360   34.9960   57.2340 N.pl3   0  <0>0       -0.3150
     14  C28        7.3230   36.6700   60.2690 C.2     0  <0>0        0.1722
     15  O2         6.3830   37.3520   60.6280 O.2     0  <0>0       -0.2916
     16  C29        8.3920   36.3300   61.2630 C.3     0  <0>0        0.0736
     17  H16        6.4300   37.3450   55.9830 H       0  <0>0        0.1474
     18  H21        9.5120   35.0800   56.7330 H       0  <0>0        0.1520
     19  C7        10.7850   35.6840   61.4720 C.ar    0  <0>0       -0.0215
     20  C6        11.1410   36.5060   62.5250 C.ar    0  <0>0       -0.0011
     21  C5        12.1260   36.1100   63.4090 C.ar    0  <0>0        0.0366
     22  C4        12.7570   34.8870   63.2400 C.ar    0  <0>0        0.1384
     23  C9        12.3970   34.0630   62.1840 C.ar    0  <0>0        0.0366
     24  C8        11.4080   34.4610   61.3060 C.ar    0  <0>0       -0.0011
     25  O1        13.7260   34.4950   64.1100 O.3     0  <0>0       -0.4792
     26  C2        14.7720   33.6740   63.5880 C.3     0  <0>0        0.1661
     27  C1        16.0990   34.0600   64.2450 C.3     0  <0>0        0.0472
     28  C3        14.4630   32.2050   63.8850 C.3     0  <0>0        0.0472
     29  C21        4.9630   35.9730   58.5420 C.ar    0  <0>0       -0.0002
     30  C26        3.7150   36.4580   58.1970 C.ar    0  <0>0       -0.0019
     31  C25        2.5770   35.7950   58.6110 C.ar    0  <0>0        0.0059
     32  C24        2.6870   34.6390   59.3740 C.ar    0  <0>0        0.0252
     33  C23        3.9430   34.1550   59.7200 C.ar    0  <0>0        0.0059
     34  C22        5.0770   34.8200   59.2980 C.ar    0  <0>0       -0.0019
     35  S1         1.2370   33.7900   59.9050 S.3     0  <0>0       -0.1127
     36  C27        0.2320   33.6560   58.4010 C.3     0  <0>0        0.0742
@<TRIPOS>BOND
     1     9    10   ar
     2     9     8   ar
     3    10    11   ar
     4     8     7   ar
     5    17     6    1
     6    11    12   ar
     7     7    12   ar
     8     7     6    1
     9    12    13    1
    10     6     5    1
    11    18    13    1
    12    13     3    1
    13     5    29    1
    14     5     4    1
    15    30    29   ar
    16    30    31   ar
    17    36    35    1
    18     3     4    2
    19     3     2    1
    20    29    34   ar
    21    31    32   ar
    22     4    14    1
    23    34    33   ar
    24    32    33   ar
    25    32    35    1
    26     2     1    1
    27    14    15    2
    28    14    16    1
    29     1    16    1
    30     1    19    1
    31    24    19   ar
    32    24    23   ar
    33    19    20   ar
    34    23    22   ar
    35    20    21   ar
    36    22    21   ar
    37    22    25    1
    38    26    28    1
    39    26    25    1
    40    26    27    1
