@<TRIPOS>MOLECULE
ZINC25425130_replica-1.pdb
 27 29 0 0 0
SMALL
GASTEIGER

@<TRIPOS>ATOM
      1  C7         6.1660   34.2710   60.1110 C.2     0  <0>0        0.2718
      2  O1         5.4450   35.0540   60.6930 O.2     0  <0>0       -0.2706
      3  N4         7.4620   34.5770   59.9000 N.am    0  <0>0       -0.2952
      4  H10        8.0380   33.9500   59.4350 H       0  <0>0        0.1501
      5  C8         8.0000   35.8550   60.3720 C.3     0  <0>0        0.1170
      6  C9         9.3650   35.6350   60.9700 C.ar    0  <0>0       -0.0003
      7  C14        9.9950   36.6590   61.6520 C.ar    0  <0>0       -0.0024
      8  C13       11.2470   36.4550   62.2040 C.ar    0  <0>0       -0.0003
      9  C12       11.8710   35.2300   62.0660 C.ar    0  <0>0       -0.0000
     10  C11       11.2450   34.2080   61.3790 C.ar    0  <0>0       -0.0003
     11  C10        9.9910   34.4090   60.8310 C.ar    0  <0>0       -0.0024
     12  C15        8.1060   36.8130   59.2150 C.ar    0  <0>0       -0.0003
     13  C20        8.6310   36.3860   58.0090 C.ar    0  <0>0       -0.0024
     14  C19        8.7250   37.2640   56.9460 C.ar    0  <0>0       -0.0003
     15  C18        8.3010   38.5720   57.0910 C.ar    0  <0>0       -0.0000
     16  C17        7.7810   39.0010   58.2980 C.ar    0  <0>0       -0.0003
     17  C16        7.6830   38.1210   59.3590 C.ar    0  <0>0       -0.0024
     18  C6         5.6130   32.9560   59.6250 C.3     0  <0>0        0.3017
     19  N3         5.9870   32.7580   58.2220 N.am    0  <0>0       -0.1093
     20  C4         5.4730   33.4040   57.1310 C.2     0  <0>0        0.3408
     21  N1         6.0850   32.9360   56.0800 N.2     0  <0>0        0.0876
     22  N2         6.9390   32.0410   56.4290 N.2     0  <0>0        0.0470
     23  C5         6.9190   31.8890   57.7330 C.1     0  <0>0        0.1798
     24  S1         7.9120   30.7790   58.6730 S.2     0  <0>0        0.0561
     25  C3         4.4040   34.4660   57.1440 C.3     0  <0>0        0.1209
     26  C2         5.0580   35.8470   57.2220 C.3     0  <0>0        0.0128
     27  C1         5.1990   36.4250   55.8120 C.3     0  <0>0        0.0006
@<TRIPOS>BOND
     1    27    26    1
     2    21    22    1
     3    21    20    2
     4    22    23    2
     5    14    15   ar
     6    14    13   ar
     7    15    16   ar
     8    20    25    1
     9    20    19    1
    10    25    26    1
    11    23    19    1
    12    23    24    2
    13    13    12   ar
    14    19    18    1
    15    16    17   ar
    16    12    17   ar
    17    12     5    1
    18     4     3    1
    19    18     1    1
    20     3     1   am
    21     3     5    1
    22     1     2    2
    23     5     6    1
    24    11     6   ar
    25    11    10   ar
    26     6     7   ar
    27    10     9   ar
    28     7     8   ar
    29     9     8   ar
