@<TRIPOS>MOLECULE
ZINC00076979_replica-1.pdb
 21 23 0 0 0
SMALL
GASTEIGER

@<TRIPOS>ATOM
      1  C8        -0.7800   29.3650   54.5160 C.2     0  <0>0        0.1225
      2  C9        -1.9590   29.7420   55.0920 C.3     0  <0>0        0.1247
      3  S1        -1.4510   31.2220   55.9560 S.3     0  <0>0       -0.0594
      4  C10        0.2670   31.1910   55.4660 C.2     0  <0>0        0.2110
      5  N1         0.3070   30.1060   54.7130 N.2     0  <0>0       -0.3842
      6  N2         1.2860   32.0740   55.7860 N.pl3   0  <0>0       -0.2833
      7  H9         2.0740   32.1310   55.2230 H       0  <0>0        0.1551
      8  C11        1.1810   32.8800   56.9230 C.ar    0  <0>0        0.0464
      9  C16        1.4600   32.3540   58.1780 C.ar    0  <0>0       -0.0084
     10  C15        1.3610   33.1540   59.2990 C.ar    0  <0>0       -0.0030
     11  C17        1.8760   30.9120   58.3160 C.3     0  <0>0        0.0323
     12  C14        0.9750   34.4760   59.1740 C.ar    0  <0>0       -0.0002
     13  C13        0.6910   35.0020   57.9260 C.ar    0  <0>0        0.0013
     14  C12        0.7930   34.2090   56.8010 C.ar    0  <0>0        0.0144
     15  C5        -0.7140   28.1480   53.6710 C.ar    0  <0>0        0.0263
     16  C4        -1.3250   28.1310   52.4190 C.ar    0  <0>0        0.0019
     17  C3        -1.2590   26.9960   51.6360 C.ar    0  <0>0       -0.0042
     18  C2        -0.5890   25.8750   52.0940 C.ar    0  <0>0       -0.0218
     19  C1        -0.5210   24.6390   51.2360 C.3     0  <0>0        0.0310
     20  C7         0.0200   25.8860   53.3370 C.ar    0  <0>0       -0.0042
     21  C6        -0.0350   27.0180   54.1250 C.ar    0  <0>0        0.0019
@<TRIPOS>BOND
     1    19    18    1
     2    17    18   ar
     3    17    16   ar
     4    18    20   ar
     5    16    15   ar
     6    20    21   ar
     7    15    21   ar
     8    15     1    1
     9     1     5    2
    10     1     2    1
    11     5     4    2
    12     2     3    1
    13     7     6    1
    14     4     6    1
    15     4     3    1
    16     6     8    1
    17    14     8   ar
    18    14    13   ar
    19     8     9   ar
    20    13    12   ar
    21     9    11    1
    22     9    10   ar
    23    12    10   ar
