@<TRIPOS>MOLECULE
ZINC01835659_replica-1.pdb
 31 33 0 0 0
SMALL
GASTEIGER

@<TRIPOS>ATOM
      1  C10        9.1420   35.1080   58.9060 C.3     0  <0>0        0.0454
      2  C7         9.8990   34.5490   60.0830 C.ar    0  <0>0       -0.0182
      3  C6         9.6630   33.2510   60.5010 C.ar    0  <0>0       -0.0008
      4  C5        10.3560   32.7350   61.5790 C.ar    0  <0>0        0.0366
      5  C4        11.2890   33.5200   62.2430 C.ar    0  <0>0        0.1384
      6  C9        11.5190   34.8230   61.8240 C.ar    0  <0>0        0.0366
      7  C8        10.8290   35.3320   60.7410 C.ar    0  <0>0       -0.0008
      8  O1        11.9720   33.0140   63.3030 O.3     0  <0>0       -0.4792
      9  C2        12.9840   32.0460   63.0200 C.3     0  <0>0        0.1661
     10  C1        14.3480   32.5960   63.4470 C.3     0  <0>0        0.0472
     11  C3        12.6900   30.7590   63.7940 C.3     0  <0>0        0.0472
     12  C11        8.6020   33.9590   58.0530 C.3     0  <0>0       -0.0145
     13  C12        8.3170   34.4650   56.6380 C.3     0  <0>0       -0.0806
     14  N1         6.9620   34.0630   56.2370 N.4     0  <0>0        0.3865
     15  H17        6.9900   33.6570   55.3140 H       0  <0>0       -0.0840
     16  H32        6.6050   33.3840   56.8930 H       0  <0>0       -0.0840
     17  C13        6.0850   35.2410   56.2280 C.3     0  <0>0       -0.0543
     18  C14        4.9840   35.0570   57.2400 C.ar    0  <0>0       -0.0437
     19  C19        4.8810   33.8700   57.9410 C.ar    0  <0>0       -0.0063
     20  C18        3.8740   33.7010   58.8720 C.ar    0  <0>0       -0.0004
     21  C17        2.9630   34.7170   59.0970 C.ar    0  <0>0       -0.0000
     22  C16        3.0640   35.9030   58.3920 C.ar    0  <0>0       -0.0004
     23  C15        4.0740   36.0730   57.4640 C.ar    0  <0>0       -0.0063
     24  C20        7.9930   35.9480   59.4020 C.ar    0  <0>0        0.0154
     25  C25        7.8610   37.2630   58.9790 C.ar    0  <0>0        0.1350
     26  C24        6.8000   38.0330   59.4330 C.ar    0  <0>0        0.0366
     27  C23        5.8830   37.4910   60.3130 C.ar    0  <0>0        0.0031
     28  C22        6.0200   36.1830   60.7380 C.ar    0  <0>0       -0.0001
     29  C21        7.0740   35.4130   60.2830 C.ar    0  <0>0       -0.0010
     30  O2         8.7680   37.7950   58.1160 O.3     0  <0>0       -0.4717
     31  C26        8.2580   38.3590   56.9060 C.3     0  <0>0        0.2525
@<TRIPOS>BOND
     1    15    14    1
     2    17    14    1
     3    17    18    1
     4    14    13    1
     5    14    16    1
     6    13    12    1
     7    31    30    1
     8    18    23   ar
     9    18    19   ar
    10    23    22   ar
    11    19    20   ar
    12    12     1    1
    13    30    25    1
    14    22    21   ar
    15    20    21   ar
    16     1    24    1
    17     1     2    1
    18    25    24   ar
    19    25    26   ar
    20    24    29   ar
    21    26    27   ar
    22     2     3   ar
    23     2     7   ar
    24    29    28   ar
    25    27    28   ar
    26     3     4   ar
    27     7     6   ar
    28     4     5   ar
    29     6     5   ar
    30     5     8    1
    31     9     8    1
    32     9    10    1
    33     9    11    1
