@<TRIPOS>MOLECULE
ZINC44725981_replica-1.pdb
 21 21 0 0 0
SMALL
GASTEIGER

@<TRIPOS>ATOM
      1  C6        10.6440   35.2590   60.4890 C.ar    0  <0>0        0.0447
      2  C7        10.2370   36.4780   61.0160 C.ar    0  <0>0        0.0156
      3  C8         9.2430   37.2030   60.3870 C.ar    0  <0>0        0.0199
      4  C9         8.6530   36.7150   59.2350 C.ar    0  <0>0        0.1143
      5  C10        9.0560   35.5020   58.7080 C.ar    0  <0>0        0.0199
      6  C11       10.0540   34.7750   59.3280 C.ar    0  <0>0        0.0156
      7  N1        11.6490   34.5240   61.1210 N.pl3   0  <0>0       -0.3320
      8  H12       12.4630   34.3030   60.6430 H       0  <0>0        0.1468
      9  C4        11.4740   34.0860   62.5080 C.3     0  <0>0        0.0990
     10  C5        12.6230   34.6300   63.3630 C.3     0  <0>0        0.0238
     11  C3        11.4760   32.5580   62.5660 C.3     0  <0>0        0.1615
     12  O1        12.5470   32.1140   63.4030 O.3     0  <0>0       -0.3520
     13  C2        12.8570   30.7260   63.2620 C.3     0  <0>0        0.1423
     14  C1        12.3040   29.9550   64.4630 C.3     0  <0>0        0.0346
     15  S1         7.3850   37.6420   58.4370 S.O2    0  <0>0        0.0920
     16  O2         6.3560   36.6990   58.1770 O.2     0  <0>0       -0.1612
     17  O3         7.1520   38.7510   59.2950 O.2     0  <0>0       -0.1612
     18  C12        8.1280   38.2030   56.8790 C.3     0  <0>0        0.5262
     19  F1         7.1620   38.8650   56.1130 F       0  <0>0       -0.1500
     20  F2         9.1850   39.0770   57.1550 F       0  <0>0       -0.1500
     21  F3         8.6100   37.0980   56.1690 F       0  <0>0       -0.1500
@<TRIPOS>BOND
     1    19    18    1
     2    21    18    1
     3    18    20    1
     4    18    15    1
     5    16    15    2
     6    15     4    1
     7    15    17    2
     8     5     4   ar
     9     5     6   ar
    10     4     3   ar
    11     6     1   ar
    12     3     2   ar
    13     1     2   ar
    14     1     7    1
    15     8     7    1
    16     7     9    1
    17     9    11    1
    18     9    10    1
    19    11    12    1
    20    13    12    1
    21    13    14    1
