@<TRIPOS>MOLECULE
ZINC40737548_replica-1.pdb
 22 23 0 0 0
SMALL
GASTEIGER

@<TRIPOS>ATOM
      1  N1         0.2990   29.5680   55.6980 N.pl3   0  <0>0       -0.3340
      2  H13        1.2120   29.5500   56.0260 H       0  <0>0        0.1468
      3  C6        -0.6860   30.4540   56.3230 C.3     0  <0>0        0.0690
      4  C5        -0.9760   29.9720   57.7460 C.3     0  <0>0        0.0179
      5  C4         0.3160   29.9880   58.5640 C.3     0  <0>0        0.0016
      6  C3         0.8720   31.4130   58.6130 C.3     0  <0>0        0.0001
      7  C2         1.1620   31.8960   57.1900 C.3     0  <0>0        0.0016
      8  C1         1.7180   33.3210   57.2390 C.3     0  <0>0        0.0001
      9  C7        -0.1310   31.8790   56.3710 C.3     0  <0>0        0.0195
     10  C16       -1.5320   28.5470   57.6970 C.3     0  <0>0        0.0016
     11  C17       -1.7730   28.0450   59.1220 C.3     0  <0>0        0.0001
     12  C18       -2.8520   28.5400   56.9240 C.3     0  <0>0        0.0001
     13  C8        -0.0750   28.7490   54.6300 C.ar    0  <0>0        0.0446
     14  C13       -0.9770   29.2130   53.6810 C.ar    0  <0>0        0.0140
     15  C12       -1.3410   28.4030   52.6230 C.ar    0  <0>0       -0.0029
     16  C11       -0.8180   27.1270   52.5160 C.ar    0  <0>0       -0.0196
     17  C10        0.0760   26.6610   53.4620 C.ar    0  <0>0       -0.0029
     18  C9         0.4490   27.4680   54.5190 C.ar    0  <0>0        0.0140
     19  C14       -1.2220   26.2440   51.3630 C.3     0  <0>0        0.0581
     20  C15       -0.6490   24.8410   51.5700 C.3     0  <0>0        0.1418
     21  O1        -0.3250   24.2660   50.3030 O.3     0  <0>0       -0.3816
     22  H22       -0.8520   24.6090   49.5690 H       0  <0>0        0.2105
@<TRIPOS>BOND
     1    22    21    1
     2    21    20    1
     3    19    20    1
     4    19    16    1
     5    16    15   ar
     6    16    17   ar
     7    15    14   ar
     8    17    18   ar
     9    14    13   ar
    10    18    13   ar
    11    13     1    1
    12     1     2    1
    13     1     3    1
    14     3     9    1
    15     3     4    1
    16     9     7    1
    17    12    10    1
    18     7     8    1
    19     7     6    1
    20    10     4    1
    21    10    11    1
    22     4     5    1
    23     5     6    1
