@<TRIPOS>MOLECULE
ZINC37624498_replica-1.pdb
 25 26 0 0 0
SMALL
GASTEIGER

@<TRIPOS>ATOM
      1  C4         0.3590   32.3520   57.7380 C.ar    0  <0>0        0.1293
      2  C5         0.2890   31.1080   58.3290 C.ar    0  <0>0        0.0016
      3  C6        -0.3790   30.2540   57.4350 C.ar    0  <0>0        0.0153
      4  C7        -0.7050   31.0100   56.3040 C.ar    0  <0>0        0.0774
      5  N1        -0.2550   32.2850   56.5050 N.ar    0  <0>0       -0.3471
      6  H1        -0.3490   33.0220   55.8800 H       0  <0>0        0.1662
      7  C17        0.8300   30.7310   59.6830 C.3     0  <0>0        0.0328
      8  C8        -1.4080   30.5240   55.1190 C.2     0  <0>0        0.1344
      9  N2        -0.7410   29.9540   54.1550 N.2     0  <0>0       -0.1783
     10  N3        -1.4250   29.3850   53.0720 N.pl3   0  <0>0       -0.2359
     11  H8        -2.0880   29.9040   52.5910 H       0  <0>0        0.1744
     12  C9        -1.1520   28.0730   52.6860 C.ar    0  <0>0        0.0650
     13  C14       -1.6820   27.5690   51.5040 C.ar    0  <0>0        0.0160
     14  C13       -1.4040   26.2720   51.1220 C.ar    0  <0>0        0.0013
     15  C12       -0.6100   25.4690   51.9210 C.ar    0  <0>0        0.0001
     16  C11       -0.0860   25.9650   53.1010 C.ar    0  <0>0        0.0013
     17  C10       -0.3540   27.2630   53.4860 C.ar    0  <0>0        0.0160
     18  C15       -0.6810   28.8260   57.6500 C.2     0  <0>0        0.0084
     19  C16        0.1870   27.8980   57.2610 C.2     0  <0>0        0.0408
     20 Br         -0.2570   26.0660   57.4110 Br      0  <0>0       -0.0485
     21  C3         0.9760   33.5420   58.3240 C.2     0  <0>0        0.3568
     22  O2         2.1630   33.7570   58.1590 O.2     0  <0>0       -0.2433
     23  O1         0.2290   34.4030   59.0480 O.3     0  <0>0       -0.4444
     24  C2         0.6600   34.6710   60.3840 C.3     0  <0>0        0.2089
     25  C1        -0.1540   33.8230   61.3620 C.3     0  <0>0        0.0513
@<TRIPOS>BOND
     1    14    13   ar
     2    14    15   ar
     3    13    12   ar
     4    15    16   ar
     5    11    10    1
     6    12    10    1
     7    12    17   ar
     8    10     9    1
     9    16    17   ar
    10     9     8    2
    11     8     4    1
    12     6     5    1
    13     4     5   ar
    14     4     3   ar
    15     5     1   ar
    16    19    20    1
    17    19    18    2
    18     3    18    1
    19     3     2   ar
    20     1    21    1
    21     1     2   ar
    22    22    21    2
    23    21    23    1
    24     2     7    1
    25    23    24    1
    26    24    25    1
