@<TRIPOS>MOLECULE
ZINC62064652_replica-1.pdb
 26 27 0 0 0
SMALL
GASTEIGER

@<TRIPOS>ATOM
      1  C9         8.3580   36.9940   58.5470 C.3     0  <0>0        0.1020
      2  C10        8.5200   38.1520   59.5340 C.3     0  <0>0        0.0115
      3  C8         8.6780   37.4800   57.1320 C.3     0  <0>0        0.1833
      4  S1         7.3620   36.9530   55.9990 S.O2    0  <0>0        0.0736
      5  O1         7.9240   36.3230   54.8560 O.2     0  <0>0       -0.1528
      6  O2         6.3960   37.9850   55.8570 O.2     0  <0>0       -0.1528
      7  N1         6.5700   35.7400   56.8020 N.pl3   0  <0>0       -0.1006
      8  C5         5.1750   35.7370   56.8610 C.ar    0  <0>0        0.0906
      9  C4         4.4310   35.4880   55.7130 C.ar    0  <0>0        0.0177
     10  C3         3.0510   35.4850   55.7750 C.ar    0  <0>0       -0.0029
     11  C2         2.4100   35.7290   56.9750 C.ar    0  <0>0       -0.0218
     12  C1         0.9040   35.7250   57.0380 C.3     0  <0>0        0.0310
     13  C7         3.1470   35.9830   58.1180 C.ar    0  <0>0       -0.0029
     14  C6         4.5270   35.9820   58.0650 C.ar    0  <0>0        0.0177
     15  C11        9.3000   35.8780   58.9200 C.2     0  <0>0        0.2238
     16  O3         9.5060   34.9720   58.1410 O.2     0  <0>0       -0.2751
     17  N2         9.9150   35.8890   60.1200 N.am    0  <0>0       -0.3040
     18  H14        9.7500   36.6140   60.7420 H       0  <0>0        0.1494
     19  C12       10.8300   34.8050   60.4820 C.3     0  <0>0        0.0937
     20  C13       11.5370   35.1520   61.7930 C.3     0  <0>0        0.0429
     21  C14       12.1590   33.9080   62.3740 C.2     0  <0>0       -0.0468
     22  C19       13.6530   33.8720   62.5240 C.3     0  <0>0        0.0218
     23  C18       14.0560   32.7590   63.4960 C.3     0  <0>0        0.0047
     24  C17       13.3460   31.4670   63.0710 C.3     0  <0>0        0.0050
     25  C16       11.8440   31.6400   63.3050 C.3     0  <0>0        0.0254
     26  C15       11.3740   32.9340   62.7060 C.2     0  <0>0       -0.0346
@<TRIPOS>BOND
     1     5     4    2
     2     9    10   ar
     3     9     8   ar
     4    10    11   ar
     5     6     4    2
     6     4     7    1
     7     4     3    1
     8     7     8    1
     9     8    14   ar
    10    11    12    1
    11    11    13   ar
    12     3     1    1
    13    14    13   ar
    14    16    15    2
    15     1    15    1
    16     1     2    1
    17    15    17   am
    18    17    19    1
    19    17    18    1
    20    19    20    1
    21    20    21    1
    22    21    22    1
    23    21    26    2
    24    22    23    1
    25    26    25    1
    26    24    25    1
    27    24    23    1
