@<TRIPOS>MOLECULE
ZINC62753599_replica-1.pdb
 20 20 0 0 0
SMALL
GASTEIGER

@<TRIPOS>ATOM
      1  C3         9.2520   36.8640   59.9580 C.3     0  <0>0       -0.0020
      2  C4        10.2530   35.7160   60.1100 C.3     0  <0>0        0.0004
      3  C5         9.5470   34.3860   59.8390 C.3     0  <0>0        0.0092
      4  C6         8.9850   34.3880   58.4150 C.3     0  <0>0        0.0847
      5  C7         7.9840   35.5360   58.2640 C.3     0  <0>0       -0.0472
      6  C8         8.6900   36.8660   58.5350 C.3     0  <0>0       -0.0203
      7  N1         7.4440   35.5380   56.8970 N.4     0  <0>0        0.3885
      8  C9         8.4980   35.9380   55.9560 C.3     0  <0>0       -0.1005
      9  H31        7.1190   34.6120   56.6640 H       0  <0>0       -0.0796
     10  C10        6.3270   36.4860   56.8150 C.3     0  <0>0       -0.0580
     11  C11        6.5070   37.3820   55.5880 C.3     0  <0>0       -0.0229
     12  C12        5.0110   35.7140   56.6930 C.3     0  <0>0       -0.0171
     13  C13        5.3000   34.2780   56.2510 C.3     0  <0>0       -0.0020
     14  C14        4.3020   35.6970   58.0480 C.3     0  <0>0       -0.0020
     15  C15        4.1140   36.3950   55.6570 C.3     0  <0>0       -0.0020
     16  C16        8.2910   33.0780   58.1480 C.2     0  <0>0        0.3623
     17  O1         8.3660   32.5610   57.0460 O.co2   0  <0>0       -0.2458
     18  O2         7.6540   32.5330   59.0340 O.co2   0  <0>0       -0.2458
     19  C2         8.1090   36.6800   60.9580 C.3     0  <0>0       -0.0001
     20  C1         6.8890   37.4770   60.4900 C.3     0  <0>0       -0.0000
@<TRIPOS>BOND
     1    11    10    1
     2    15    12    1
     3     8     7    1
     4    13    12    1
     5     9     7    1
     6    12    10    1
     7    12    14    1
     8    10     7    1
     9     7     5    1
    10    17    16   ar
    11    16     4    1
    12    16    18   ar
    13     5     4    1
    14     5     6    1
    15     4     3    1
    16     6     1    1
    17     3     2    1
    18     1     2    1
    19     1    19    1
    20    20    19    1
