@<TRIPOS>MOLECULE
ZINC35380351_replica-1.pdb
 24 25 0 0 0
SMALL
GASTEIGER

@<TRIPOS>ATOM
      1  C6         7.6090   37.5100   58.9500 C.2     0  <0>0        0.0937
      2  N2         6.3710   37.1330   59.0760 N.2     0  <0>0       -0.1842
      3  C4         8.6940   36.6600   59.4700 C.ar    0  <0>0        0.0963
      4  N1         9.0080   35.5320   58.8390 N.ar    0  <0>0       -0.2426
      5  C3         9.9730   34.7450   59.2730 C.ar    0  <0>0        0.0989
      6  C2        10.6970   35.0680   60.4060 C.ar    0  <0>0        0.0207
      7  C1        10.4020   36.2370   61.0950 C.ar    0  <0>0        0.0032
      8  C5         9.3860   37.0450   60.6210 C.ar    0  <0>0        0.0204
      9  C13        7.9330   38.8160   58.2720 C.3     0  <0>0        0.0490
     10  C14        8.5230   38.5380   56.8880 C.3     0  <0>0        0.0070
     11  C15        7.3920   38.2360   55.9020 C.3     0  <0>0        0.0122
     12  C16        7.5690   36.8240   55.3390 C.3     0  <0>0        0.1141
     13  C17        6.4380   35.9490   55.8140 C.2     0  <0>0        0.3649
     14  O1         6.6750   34.9550   56.4800 O.co2   0  <0>0       -0.2457
     15  O2         5.2880   36.2330   55.5320 O.co2   0  <0>0       -0.2457
     16  N3         6.0740   35.8690   59.6020 N.pl3   0  <0>0       -0.2362
     17  H5         6.7780   35.3300   59.9960 H       0  <0>0        0.1744
     18  C7         4.7660   35.3830   59.5570 C.ar    0  <0>0        0.0652
     19  C12        3.8090   36.0280   58.7830 C.ar    0  <0>0        0.0183
     20  C11        2.5170   35.5410   58.7360 C.ar    0  <0>0        0.0310
     21  C10        2.1730   34.4180   59.4690 C.ar    0  <0>0        0.1402
     22  C9         3.1240   33.7760   60.2450 C.ar    0  <0>0        0.0310
     23  F1         0.9080   33.9460   59.4260 F       0  <0>0       -0.2042
     24  C8         4.4170   34.2550   60.2910 C.ar    0  <0>0        0.0183
@<TRIPOS>BOND
     1    12    13    1
     2    12    11    1
     3    15    13   ar
     4    13    14   ar
     5    11    10    1
     6    10     9    1
     7     9     1    1
     8    20    19   ar
     9    20    21   ar
    10    19    18   ar
    11     4     5   ar
    12     4     3   ar
    13     1     2    2
    14     1     3    1
    15     2    16    1
    16     5     6   ar
    17    23    21    1
    18    21    22   ar
    19     3     8   ar
    20    18    16    1
    21    18    24   ar
    22    16    17    1
    23    22    24   ar
    24     6     7   ar
    25     8     7   ar
