@<TRIPOS>MOLECULE
ZINC37060096_replica-1.pdb
 19 19 0 0 0
SMALL
GASTEIGER

@<TRIPOS>ATOM
      1  C8        -0.1260   28.3550   54.3550 C.ar    0  <0>0        0.0570
      2  C9        -0.0780   27.0660   53.8410 C.ar    0  <0>0        0.0392
      3  C10       -0.7430   26.7680   52.6680 C.ar    0  <0>0        0.1442
      4  C11       -1.4560   27.7490   52.0050 C.ar    0  <0>0        0.0250
      5  C12       -1.5070   29.0350   52.5140 C.ar    0  <0>0        0.0143
      6  C13       -0.8490   29.3390   53.6900 C.ar    0  <0>0        0.0708
      7 Cl         -0.9180   30.9500   54.3330 Cl      0  <0>0       -0.0810
      8  N1         0.5450   28.6600   55.5420 N.pl3   0  <0>0       -0.3333
      9  H16        1.3800   29.1550   55.5140 H       0  <0>0        0.1468
     10  C4        -0.0090   28.2320   56.8280 C.3     0  <0>0        0.0690
     11  C3         1.1030   27.6240   57.6870 C.3     0  <0>0        0.0195
     12  C2         0.5210   26.5090   58.5590 C.3     0  <0>0        0.0017
     13  C1        -0.1820   25.4810   57.6690 C.3     0  <0>0        0.0001
     14  C5        -0.6100   29.4390   57.5520 C.3     0  <0>0        0.0195
     15  C6        -2.0980   29.5490   57.2120 C.3     0  <0>0        0.0017
     16  C7        -2.7140   28.1490   57.1620 C.3     0  <0>0        0.0001
     17  N2        -0.6920   25.3940   52.1180 N.pl3   0  <0>0        0.0577
     18  O1        -1.1860   25.1550   51.0410 O.2     0  <0>0       -0.1261
     19  O2        -0.1580   24.5110   52.7480 O.2     0  <0>0       -0.1261
@<TRIPOS>BOND
     1    18    17    2
     2     4     5   ar
     3     4     3   ar
     4    17     3    1
     5    17    19    2
     6     5     6   ar
     7     3     2   ar
     8     6     7    1
     9     6     1   ar
    10     2     1   ar
    11     1     8    1
    12     9     8    1
    13     8    10    1
    14    10    14    1
    15    10    11    1
    16    16    15    1
    17    15    14    1
    18    13    12    1
    19    11    12    1
