@<TRIPOS>MOLECULE
ZINC40738877_replica-1.pdb
 26 28 0 0 0
SMALL
GASTEIGER

@<TRIPOS>ATOM
      1  C1        -0.3920   29.8330   58.2960 C.ar    0  <0>0        0.0027
      2  C2         0.1620   31.1010   58.2910 C.ar    0  <0>0       -0.0061
      3  C3        -0.0530   31.9480   57.2200 C.ar    0  <0>0       -0.0407
      4  C4        -0.8220   31.5300   56.1510 C.ar    0  <0>0        0.0306
      5  C5        -1.3790   30.2600   56.1530 C.ar    0  <0>0        0.1387
      6  C6        -1.1620   29.4110   57.2290 C.ar    0  <0>0        0.0369
      7  C14        0.5520   33.3280   57.2180 C.3     0  <0>0       -0.0536
      8  N1        -0.1640   34.1780   58.1780 N.4     0  <0>0        0.3913
      9  H12       -0.6270   34.9260   57.6840 H       0  <0>0       -0.0834
     10  H18       -0.8500   33.6260   58.6710 H       0  <0>0       -0.0834
     11  C15        0.7920   34.7440   59.1400 C.3     0  <0>0       -0.0149
     12  C16        0.5690   34.1220   60.4940 C.ar    0  <0>0        0.1017
     13  O2        -0.4130   34.4410   61.3530 O.2     0  <0>0       -0.4568
     14  C19       -0.3050   33.6830   62.4570 C.ar    0  <0>0        0.1790
     15  C18        0.7610   32.8730   62.3160 C.ar    0  <0>0        0.0434
     16  C17        1.3240   33.1570   61.0500 C.ar    0  <0>0        0.0340
     17  O1        -2.1360   29.8470   55.1030 O.3     0  <0>0       -0.4707
     18  C7        -1.5870   30.0290   53.7950 C.3     0  <0>0        0.2320
     19  C8        -1.2860   28.6850   53.1850 C.ar    0  <0>0        0.0221
     20  C13       -0.5490   27.7550   53.8950 C.ar    0  <0>0        0.0116
     21  C12       -0.2760   26.5180   53.3360 C.ar    0  <0>0        0.0680
     22  C11       -0.7310   26.2180   52.0640 C.ar    0  <0>0        0.0682
     23 Cl          0.6430   25.3460   54.2300 Cl      0  <0>0       -0.0814
     24  C10       -1.4630   27.1530   51.3540 C.ar    0  <0>0        0.0120
     25 Cl         -0.3840   24.6690   51.3600 Cl      0  <0>0       -0.0814
     26  C9        -1.7400   28.3850   51.9150 C.ar    0  <0>0        0.0002
@<TRIPOS>BOND
     1    24    26   ar
     2    24    22   ar
     3    25    22    1
     4    26    19   ar
     5    22    21   ar
     6    19    18    1
     7    19    20   ar
     8    21    20   ar
     9    21    23    1
    10    18    17    1
    11    17     5    1
    12     4     5   ar
    13     4     3   ar
    14     5     6   ar
    15     7     3    1
    16     7     8    1
    17     3     2   ar
    18     6     1   ar
    19     9     8    1
    20     8    10    1
    21     8    11    1
    22     2     1   ar
    23    11    12    1
    24    12    16   ar
    25    12    13   ar
    26    16    15   ar
    27    13    14   ar
    28    15    14   ar
