@<TRIPOS>MOLECULE
ZINC43255834_replica-1.pdb
 22 24 0 0 0
SMALL
GASTEIGER

@<TRIPOS>ATOM
      1  C18        5.1040   35.8960   57.7440 C.3     0  <0>0        0.1054
      2  C19        4.4780   35.7770   56.4170 C.1     0  <0>0        0.0731
      3  N3         3.9950   35.6850   55.3930 N.1     0  <0>0       -0.1959
      4  C17        5.8440   34.6000   58.0770 C.3     0  <0>0        0.0162
      5  C16        5.4660   34.1450   59.4880 C.3     0  <0>0        0.0029
      6  C15        6.6960   34.2240   60.3960 C.3     0  <0>0        0.0215
      7  C14        7.9410   33.8160   59.6060 C.3     0  <0>0        0.0938
      8  N2         9.1210   34.4560   60.1910 N.pl3   0  <0>0       -0.2754
      9  C7         9.5450   35.7390   59.9680 C.2     0  <0>0        0.1833
     10  N1        10.6320   35.9730   60.6610 N.2     0  <0>0       -0.3893
     11  C8        10.9730   34.8650   61.3620 C.2     0  <0>0        0.1328
     12  C13       10.0160   33.8780   61.0700 C.3     0  <0>0        0.1499
     13  C9        12.0200   34.5690   62.2430 C.2     0  <0>0        0.0296
     14  C12       10.1170   32.6240   61.6560 C.2     0  <0>0        0.0005
     15  C11       11.1570   32.3550   62.5210 C.2     0  <0>0       -0.0024
     16  C10       12.1020   33.3300   62.8090 C.2     0  <0>0        0.0021
     17  C4         8.8740   36.7130   59.0810 C.ar    0  <0>0        0.0439
     18  C3         8.1820   37.7950   59.6260 C.ar    0  <0>0        0.0039
     19  C2         7.5570   38.7010   58.7940 C.ar    0  <0>0        0.0001
     20  C1         7.6160   38.5390   57.4210 C.ar    0  <0>0        0.0000
     21  C6         8.3010   37.4690   56.8740 C.ar    0  <0>0        0.0001
     22  C5         8.9290   36.5550   57.6960 C.ar    0  <0>0        0.0039
@<TRIPOS>BOND
     1     3     2    3
     2     2     1    1
     3    21    20   ar
     4    21    22   ar
     5    20    19   ar
     6    22    17   ar
     7     1     4    1
     8     4     5    1
     9    19    18   ar
    10    17    18   ar
    11    17     9    1
    12     5     6    1
    13     7     8    1
    14     7     6    1
    15     9     8    1
    16     9    10    2
    17     8    12    1
    18    10    11    2
    19    12    11    1
    20    12    14    1
    21    11    13    1
    22    14    15    2
    23    13    16    2
    24    15    16    1
