@<TRIPOS>MOLECULE
ZINC25157940_replica-1.pdb
 29 30 0 0 0
SMALL
GASTEIGER

@<TRIPOS>ATOM
      1  C4         8.7260   36.0290   58.4720 C.2     0  <0>0        0.2243
      2  O1         9.0750   35.0170   57.9010 O.2     0  <0>0       -0.2750
      3  N1         7.5740   36.6350   58.1220 N.am    0  <0>0       -0.3021
      4  H8         7.2930   37.4440   58.5780 H       0  <0>0        0.1497
      5  C3         9.5770   36.6060   59.5730 C.3     0  <0>0        0.1045
      6  C2         9.2160   35.9360   60.9000 C.3     0  <0>0        0.0810
      7  C1         8.5740   36.9650   61.8330 C.3     0  <0>0        0.0218
      8  N2        10.4300   35.4020   61.5240 N.am    0  <0>0       -0.3020
      9  C16       10.6650   34.0750   61.5110 C.2     0  <0>0        0.2458
     10  O3         9.8720   33.3210   60.9830 O.2     0  <0>0       -0.2701
     11  H23       11.0630   36.0030   61.9440 H       0  <0>0        0.1497
     12  C17       11.8900   33.5360   62.1400 C.ar    0  <0>0        0.0534
     13  C22       13.0890   34.2490   62.0660 C.ar    0  <0>0        0.0045
     14  C21       14.2260   33.7420   62.6590 C.ar    0  <0>0        0.0001
     15  C20       14.1850   32.5250   63.3170 C.ar    0  <0>0        0.0000
     16  C19       13.0010   31.8120   63.3890 C.ar    0  <0>0        0.0001
     17  C18       11.8550   32.3090   62.8060 C.ar    0  <0>0        0.0045
     18  C5         6.7460   36.0740   57.0520 C.3     0  <0>0        0.0940
     19  C6         5.3120   36.0040   57.5110 C.ar    0  <0>0       -0.0043
     20  C11        4.2890   35.9890   56.5790 C.ar    0  <0>0        0.0004
     21  C10        2.9750   35.9190   56.9970 C.ar    0  <0>0        0.0366
     22  C9         2.6790   35.8750   58.3520 C.ar    0  <0>0        0.1387
     23  C8         3.7070   35.8960   59.2840 C.ar    0  <0>0        0.0366
     24  C7         5.0210   35.9600   58.8610 C.ar    0  <0>0        0.0004
     25  O2         1.3860   35.8110   58.7650 O.3     0  <0>0       -0.4714
     26  C12        1.0300   34.7180   59.6140 C.3     0  <0>0        0.2525
     27  C13        6.8410   36.9650   55.8120 C.3     0  <0>0        0.0222
     28  C14        7.3240   38.3580   56.2210 C.3     0  <0>0        0.0020
     29  C15        7.8300   36.3530   54.8180 C.3     0  <0>0        0.0020
@<TRIPOS>BOND
     1    29    27    1
     2    27    28    1
     3    27    18    1
     4    20    21   ar
     5    20    19   ar
     6    21    22   ar
     7    18    19    1
     8    18     3    1
     9    19    24   ar
    10     2     1    2
    11     3     1   am
    12     3     4    1
    13    22    25    1
    14    22    23   ar
    15     1     5    1
    16    25    26    1
    17    24    23   ar
    18     5     6    1
    19     6     8    1
    20     6     7    1
    21    10     9    2
    22     9     8   am
    23     9    12    1
    24     8    11    1
    25    13    12   ar
    26    13    14   ar
    27    12    17   ar
    28    14    15   ar
    29    17    16   ar
    30    15    16   ar
