@<TRIPOS>MOLECULE
ZINC08992544_replica-1.pdb
 29 31 0 0 0
SMALL
GASTEIGER

@<TRIPOS>ATOM
      1  C6         6.9950   36.7360   59.8080 C.ar    0  <0>0        0.0252
      2  C7         8.0690   37.4890   60.2550 C.ar    0  <0>0        0.1305
      3  C8         8.8030   38.2720   59.3680 C.ar    0  <0>0        0.0365
      4  C9         8.4630   38.3140   58.0440 C.ar    0  <0>0        0.0094
      5  C10        7.3810   37.5650   57.5820 C.ar    0  <0>0        0.0763
      6  C11        6.6380   36.7670   58.4670 C.ar    0  <0>0        0.1454
      7  O1         5.6550   36.1510   57.7770 O.3     0  <0>0       -0.4504
      8  C12        5.6870   36.4840   56.4650 C.2     0  <0>0        0.1845
      9  C13        4.8300   36.0300   55.5060 C.2     0  <0>0        0.0473
     10  C18        6.7640   37.3870   56.2560 C.2     0  <0>0        0.2327
     11  O2         7.1040   37.9030   55.2050 O.2     0  <0>0       -0.2832
     12  C5         6.2130   35.8880   60.7780 C.3     0  <0>0       -0.0437
     13  N1         6.0990   34.5210   60.2280 N.4     0  <0>0        0.3898
     14  H28        5.9530   34.5800   59.2140 H       0  <0>0       -0.0792
     15  C4         4.9470   33.8250   60.8390 C.3     0  <0>0       -0.0768
     16  C2         3.9270   33.5080   59.7440 C.3     0  <0>0       -0.0208
     17  C1         4.1940   32.1080   59.1880 C.3     0  <0>0       -0.0022
     18  C3         2.5160   33.5630   60.3310 C.3     0  <0>0       -0.0022
     19  C19        7.3420   33.7660   60.4910 C.3     0  <0>0       -0.0768
     20  C20        7.9700   33.3790   59.1500 C.3     0  <0>0       -0.0208
     21  C21        9.2800   34.1480   58.9600 C.3     0  <0>0       -0.0022
     22  C22        8.2540   31.8760   59.1350 C.3     0  <0>0       -0.0022
     23  O3         8.4120   37.4590   61.5690 O.3     0  <0>0       -0.5058
     24  H18        8.5620   38.3320   61.9560 H       0  <0>0        0.2922
     25  C14        3.7970   35.1300   55.8510 C.ar    0  <0>0        0.0326
     26  S1         2.2820   35.4440   56.7380 S.2     0  <0>0       -0.0863
     27  C17        1.6270   33.8400   56.7120 C.ar    0  <0>0        0.0354
     28  C16        2.5730   33.1260   56.0450 C.ar    0  <0>0        0.0075
     29  C15        3.6980   33.7650   55.5920 C.ar    0  <0>0        0.0071
@<TRIPOS>BOND
     1    11    10    2
     2     9    25    1
     3     9     8    2
     4    29    25   ar
     5    29    28   ar
     6    25    26   ar
     7    28    27   ar
     8    10     8    1
     9    10     5    1
    10     8     7    1
    11    27    26   ar
    12     5     4   ar
    13     5     6   ar
    14     7     6    1
    15     4     3   ar
    16     6     1   ar
    17    21    20    1
    18    22    20    1
    19    20    19    1
    20    17    16    1
    21    14    13    1
    22     3     2   ar
    23    16    18    1
    24    16    15    1
    25     1     2   ar
    26     1    12    1
    27    13    19    1
    28    13    12    1
    29    13    15    1
    30     2    23    1
    31    23    24    1
