@<TRIPOS>MOLECULE
ZINC63659177_replica-1.pdb
 31 34 0 0 0
SMALL
GASTEIGER

@<TRIPOS>ATOM
      1  N2         7.9630   33.0820   59.3730 N.am    0  <0>0       -0.2845
      2  C11        8.6640   33.8990   60.3680 C.3     0  <0>0        0.0932
      3  C10        9.8020   34.6620   59.6900 C.3     0  <0>0        0.0275
      4  C7         9.4040   36.1060   59.5150 C.3     0  <0>0        0.0431
      5  C6         9.5490   37.2170   60.5310 C.3     0  <0>0        0.0731
      6  N1         9.0200   38.4240   59.8850 N.pl3   0  <0>0       -0.3340
      7  C24        8.7370   36.8950   61.7880 C.3     0  <0>0        0.0215
      8  C5         8.6190   38.1090   58.6760 C.ar    0  <0>0        0.0406
      9  H32        8.9760   39.3070   60.2830 H       0  <0>0        0.1468
     10  C4         8.0360   38.8880   57.6390 C.ar    0  <0>0        0.0137
     11  C8         8.8470   36.6700   58.4200 C.ar    0  <0>0       -0.0081
     12  C3         7.7060   38.3180   56.4620 C.ar    0  <0>0       -0.0030
     13  C2         7.9110   36.9580   56.1950 C.ar    0  <0>0       -0.0221
     14  C1         7.5110   36.4050   54.8510 C.3     0  <0>0        0.0310
     15  C9         8.4530   36.1260   57.1140 C.ar    0  <0>0       -0.0073
     16  C12        8.6370   31.9330   58.7630 C.3     0  <0>0        0.1574
     17  C13        7.8060   30.6940   58.9720 C.ar    0  <0>0        0.1430
     18  O1         7.3910   30.2170   60.1580 O.2     0  <0>0       -0.4530
     19  C16        6.6700   29.1010   59.9640 C.ar    0  <0>0        0.1792
     20  C15        6.6260   28.8470   58.6440 C.ar    0  <0>0        0.0435
     21  C14        7.3580   29.8740   58.0050 C.ar    0  <0>0        0.0379
     22  C17        6.6990   33.3880   59.0200 C.2     0  <0>0        0.1349
     23  S1         5.4470   33.3360   60.1870 S.2     0  <0>0       -0.0186
     24  N3         6.4200   33.7350   57.7480 N.am    0  <0>0       -0.3176
     25  H17        7.1280   33.7640   57.0870 H       0  <0>0        0.1484
     26  C18        5.0450   34.0670   57.3640 C.3     0  <0>0        0.0706
     27  C23        4.8470   35.5820   57.4400 C.3     0  <0>0        0.0195
     28  C22        3.4120   35.9300   57.0390 C.3     0  <0>0        0.0017
     29  C21        3.1520   35.4520   55.6090 C.3     0  <0>0        0.0001
     30  C20        3.3490   33.9360   55.5340 C.3     0  <0>0        0.0017
     31  C19        4.7850   33.5890   55.9350 C.3     0  <0>0        0.0195
@<TRIPOS>BOND
     1    14    13    1
     2    30    29    1
     3    30    31    1
     4    29    28    1
     5    31    26    1
     6    13    12   ar
     7    13    15   ar
     8    12    10   ar
     9    28    27    1
    10    25    24    1
    11    15    11   ar
    12    26    27    1
    13    26    24    1
    14    10     8   ar
    15    24    22    1
    16    21    20   ar
    17    21    17   ar
    18    11     8   ar
    19    11     4    1
    20    20    19   ar
    21     8     6    1
    22    16    17    1
    23    16     1    1
    24    17    18   ar
    25    22     1    1
    26    22    23    2
    27     1     2    1
    28     4     3    1
    29     4     5    1
    30     3     2    1
    31     6     9    1
    32     6     5    1
    33    19    18   ar
    34     5     7    1
