@<TRIPOS>MOLECULE
ZINC20614024_replica-1.pdb
 28 31 0 0 0
SMALL
GASTEIGER

@<TRIPOS>ATOM
      1  N1         0.3760   31.4180   57.0220 N.3     0  <0>0       -0.1527
      2  C11       -0.4990   32.5280   57.4320 C.3     0  <0>0        0.1131
      3  C12        0.2930   33.4520   58.3640 C.3     0  <0>0        0.0918
      4  N2         1.5400   33.8580   57.7030 N.3     0  <0>0       -0.2664
      5  C13        2.4060   32.6990   57.4430 C.3     0  <0>0        0.0918
      6  C14        1.7010   31.7440   56.4750 C.3     0  <0>0        0.1131
      7  S1        -0.1200   29.8460   57.1710 S.O2    0  <0>0        0.0634
      8  O1         1.0170   29.0990   57.5840 O.2     0  <0>0       -0.1528
      9  O2        -1.3290   29.8690   57.9180 O.2     0  <0>0       -0.1528
     10  C6        -0.5370   29.2750   55.5570 C.ar    0  <0>0        0.1222
     11  C5        -0.1380   28.0350   55.1610 C.ar    0  <0>0        0.0199
     12  C4        -0.4690   27.5760   53.8730 C.ar    0  <0>0        0.0013
     13  C3        -0.0750   26.3030   53.4300 C.ar    0  <0>0        0.0000
     14  C9        -1.2140   28.4150   53.0080 C.ar    0  <0>0        0.0001
     15  C2        -0.4140   25.8920   52.1770 C.ar    0  <0>0        0.0000
     16  C1        -1.1460   26.7170   51.3250 C.ar    0  <0>0        0.0000
     17  C10       -1.5450   27.9560   51.7220 C.ar    0  <0>0        0.0000
     18  C8        -1.6080   29.6890   53.4520 C.ar    0  <0>0        0.0014
     19  C7        -1.2750   30.0980   54.7070 C.ar    0  <0>0        0.0199
     20  C15        2.2450   34.8770   58.4890 C.3     0  <0>0        0.1001
     21  C16        3.3730   35.4520   57.6710 C.ar    0  <0>0        0.0046
     22  C21        4.6490   35.5180   58.2000 C.ar    0  <0>0        0.0572
     23  C20        5.6840   36.0410   57.4480 C.ar    0  <0>0        0.0407
     24 Cl          4.9510   34.9390   59.8090 Cl      0  <0>0       -0.0825
     25  C19        5.4410   36.5090   56.1680 C.ar    0  <0>0        0.1410
     26  C18        4.1620   36.4470   55.6400 C.ar    0  <0>0        0.0294
     27  F1         6.4500   37.0250   55.4340 F       0  <0>0       -0.2041
     28  C17        3.1290   35.9190   56.3920 C.ar    0  <0>0        0.0002
@<TRIPOS>BOND
     1    16    17   ar
     2    16    15   ar
     3    17    14   ar
     4    15    13   ar
     5    14    18   ar
     6    14    12   ar
     7    13    12   ar
     8    18    19   ar
     9    12    11   ar
    10    19    10   ar
    11    11    10   ar
    12    27    25    1
    13    10     7    1
    14    26    25   ar
    15    26    28   ar
    16    25    23   ar
    17    28    21   ar
    18     6     1    1
    19     6     5    1
    20     1     7    1
    21     1     2    1
    22     7     8    2
    23     7     9    2
    24     2     3    1
    25     5     4    1
    26    23    22   ar
    27    21    22   ar
    28    21    20    1
    29     4     3    1
    30     4    20    1
    31    22    24    1
