@<TRIPOS>MOLECULE
ZINC02727636_replica-1.pdb
 36 39 0 0 0
SMALL
GASTEIGER

@<TRIPOS>ATOM
      1  C15        4.2480   33.6100   58.0160 C.3     0  <0>0        0.0576
      2  C16        3.2970   34.0940   59.1130 C.3     0  <0>0        0.0291
      3  C17        2.4680   35.2720   58.6610 C.3     0  <0>0        0.0051
      4  C18        1.0830   34.8840   58.2150 C.3     0  <0>0        0.0050
      5  C19        0.3770   34.1850   59.3860 C.3     0  <0>0        0.0257
      6  C20        1.1740   32.9540   59.7330 C.2     0  <0>0       -0.0297
      7  C21        2.4820   32.9240   59.5800 C.2     0  <0>0       -0.0158
      8  C22        3.2120   31.6530   59.8300 C.2     0  <0>0        0.0749
      9  C23        4.4780   31.5090   59.3620 C.2     0  <0>0        0.0545
     10  C24        5.2090   32.5810   58.6110 C.3     0  <0>0        0.1921
     11  C25        5.9840   31.9620   57.5240 C.1     0  <0>0        0.0913
     12  N1         6.5830   31.4840   56.6850 N.1     0  <0>0       -0.1945
     13  C26        6.1350   33.2640   59.5300 C.1     0  <0>0        0.0913
     14  N2         6.8490   33.7910   60.2400 N.1     0  <0>0       -0.1945
     15  C27        2.5870   30.5920   60.5600 C.1     0  <0>0        0.1011
     16  N4         2.0900   29.7490   61.1390 N.1     0  <0>0       -0.1908
     17  C5         5.0310   34.7790   57.4760 C.ar    0  <0>0       -0.0240
     18  C4         5.0680   35.0150   56.1140 C.ar    0  <0>0       -0.0261
     19  C3         5.7860   36.0870   55.6180 C.ar    0  <0>0       -0.0090
     20  C28        4.3250   34.1060   55.1710 C.3     0  <0>0        0.0307
     21  C2         6.4660   36.9230   56.4840 C.ar    0  <0>0       -0.0227
     22  C1         7.2500   38.0920   55.9450 C.3     0  <0>0        0.0308
     23  C7         6.4290   36.6860   57.8460 C.ar    0  <0>0        0.0169
     24  C6         5.7150   35.6110   58.3410 C.ar    0  <0>0       -0.0055
     25  C8         7.1710   37.5980   58.7890 C.3     0  <0>0        0.2317
     26  O1         8.5760   37.4780   58.5590 O.3     0  <0>0       -0.4698
     27  C9         9.2860   36.7370   59.4510 C.ar    0  <0>0        0.1495
     28  C14        9.6570   35.4370   59.1350 C.ar    0  <0>0        0.0915
     29  C13       10.3790   34.6860   60.0430 C.ar    0  <0>0        0.0145
     30 Cl          9.2150   34.7560   57.5990 Cl      0  <0>0       -0.0791
     31  C12       10.7260   35.2260   61.2670 C.ar    0  <0>0        0.0011
     32  C11       10.3620   36.5220   61.5810 C.ar    0  <0>0        0.0032
     33  C10        9.6400   37.2780   60.6770 C.ar    0  <0>0        0.0378
     34  N3         5.1190   30.3230   59.5850 N.pl3   0  <0>0       -0.3582
     35  H21        5.5300   29.7530   58.7400 H       0  <0>0        0.1421
     36  H22        5.2240   29.9390   60.6100 H       0  <0>0        0.1421
@<TRIPOS>BOND
     1    20    18    1
     2    19    18   ar
     3    19    21   ar
     4    22    21    1
     5    18    17   ar
     6    21    23   ar
     7    12    11    3
     8    17     1    1
     9    17    24   ar
    10    11    10    1
    11    30    28    1
    12    23    24   ar
    13    23    25    1
    14     1    10    1
    15     1     2    1
    16     4     3    1
    17     4     5    1
    18    26    25    1
    19    26    27    1
    20    10     9    1
    21    10    13    1
    22     3     2    1
    23    35    34    1
    24     2     7    1
    25    28    27   ar
    26    28    29   ar
    27     9    34    1
    28     9     8    2
    29     5     6    1
    30    27    33   ar
    31    13    14    3
    32     7     6    2
    33     7     8    1
    34    34    36    1
    35     8    15    1
    36    29    31   ar
    37    15    16    3
    38    33    32   ar
    39    31    32   ar
