@<TRIPOS>MOLECULE
ZINC21511525_replica-1.pdb
 21 22 0 0 0
SMALL
GASTEIGER

@<TRIPOS>ATOM
      1  C8        11.2400   35.1550   62.2040 C.3     0  <0>0        0.0920
      2  C9        11.8210   36.4130   62.8530 C.3     0  <0>0        0.0261
      3  N1        12.3270   34.2370   61.8590 N.pl3   0  <0>0       -0.3308
      4  H9        12.9960   34.4700   61.0170 H       0  <0>0        0.1471
      5  C7        12.5150   33.0670   62.5970 C.ar    0  <0>0        0.0408
      6  C2        13.7660   32.7670   63.1210 C.ar    0  <0>0       -0.0087
      7  C1        14.9230   33.7040   62.8930 C.3     0  <0>0        0.0323
      8  C3        13.9460   31.6120   63.8550 C.ar    0  <0>0       -0.0030
      9  C4        12.8860   30.7470   64.0600 C.ar    0  <0>0       -0.0002
     10  C5        11.6400   31.0410   63.5360 C.ar    0  <0>0        0.0012
     11  C6        11.4520   32.1980   62.8050 C.ar    0  <0>0        0.0140
     12  C10       10.4880   35.5360   60.9550 C.ar    0  <0>0       -0.0016
     13  C15        9.9430   36.8000   60.8360 C.ar    0  <0>0        0.0344
     14  C14        9.2500   37.1500   59.6860 C.ar    0  <0>0        0.1440
     15  C13        9.1080   36.2290   58.6570 C.ar    0  <0>0        0.0371
     16  C12        9.6510   34.9660   58.7830 C.ar    0  <0>0        0.0028
     17  C11       10.3450   34.6210   59.9280 C.ar    0  <0>0       -0.0025
     18  O1         8.7130   38.3930   59.5670 O.3     0  <0>0       -0.4236
     19  C16        7.9430   38.6560   58.3920 C.3     0  <0>0        0.5087
     20  F1         6.9780   39.6300   58.6740 F       0  <0>0       -0.1550
     21  F2         8.7850   39.1150   57.3740 F       0  <0>0       -0.1550
@<TRIPOS>BOND
     1    21    19    1
     2    19    20    1
     3    19    18    1
     4    15    16   ar
     5    15    14   ar
     6    16    17   ar
     7    18    14    1
     8    14    13   ar
     9    17    12   ar
    10    13    12   ar
    11    12     1    1
    12     4     3    1
    13     3     1    1
    14     3     5    1
    15     1     2    1
    16     5    11   ar
    17     5     6   ar
    18    11    10   ar
    19     7     6    1
    20     6     8   ar
    21    10     9   ar
    22     8     9   ar
