@<TRIPOS>MOLECULE
ZINC09225696_replica-1.pdb
 31 35 0 0 0
SMALL
GASTEIGER

@<TRIPOS>ATOM
      1  C1         6.9980   30.3390   58.6040 C.ar    0  <0>0       -0.0001
      2  C2         8.2480   30.7850   58.2140 C.ar    0  <0>0        0.0013
      3  C3         8.5400   32.1330   58.2260 C.ar    0  <0>0        0.0147
      4  C4         7.5780   33.0560   58.6320 C.ar    0  <0>0        0.0530
      5  C5         6.3230   32.5950   59.0220 C.ar    0  <0>0        0.0258
      6  C6         6.0370   31.2470   59.0070 C.ar    0  <0>0       -0.0002
      7  C7         5.5430   33.8190   59.3890 C.3     0  <0>0        0.1938
      8  C8         6.4730   34.9730   59.1720 C.2     0  <0>0        0.2599
      9  O1         6.2300   36.1470   59.3560 O.2     0  <0>0       -0.2715
     10  N1         7.6340   34.4480   58.7300 N.am    0  <0>0       -0.2523
     11  N2         4.2840   33.9440   58.6630 N.am    0  <0>0       -0.2414
     12  C16        3.1440   33.6910   59.3050 C.2     0  <0>0        0.2415
     13  O2         2.0720   33.7890   58.7470 O.2     0  <0>0       -0.2735
     14  C17        3.2390   33.2750   60.7660 C.3     0  <0>0        0.1451
     15  S1         4.9860   33.7470   61.1370 S.3     0  <0>0       -0.1007
     16  C18        4.2730   34.3210   57.3140 C.ar    0  <0>0        0.0576
     17  C23        3.9570   35.6250   56.9590 C.ar    0  <0>0        0.0469
     18  C22        3.9480   35.9930   55.6260 C.ar    0  <0>0        0.1686
     19  C21        4.2540   35.0620   54.6460 C.ar    0  <0>0        0.1675
     20  F2         3.6400   37.2630   55.2790 F       0  <0>0       -0.2018
     21  C20        4.5690   33.7610   55.0000 C.ar    0  <0>0        0.0332
     22  F3         4.2440   35.4220   53.3440 F       0  <0>0       -0.2018
     23  C19        4.5740   33.3880   56.3310 C.ar    0  <0>0        0.0174
     24  C9         8.8170   35.2450   58.3940 C.3     0  <0>0        0.1248
     25  C10        9.6310   35.4850   59.6400 C.ar    0  <0>0       -0.0019
     26  C15       10.4990   34.5100   60.0950 C.ar    0  <0>0       -0.0003
     27  C14       11.2470   34.7280   61.2370 C.ar    0  <0>0        0.0294
     28  C13       11.1260   35.9230   61.9260 C.ar    0  <0>0        0.1401
     29  C12       10.2550   36.8980   61.4690 C.ar    0  <0>0        0.0294
     30  F1        11.8560   36.1370   63.0410 F       0  <0>0       -0.2042
     31  C11        9.5130   36.6800   60.3240 C.ar    0  <0>0       -0.0003
@<TRIPOS>BOND
     1    22    19    1
     2    19    21   ar
     3    19    18   ar
     4    21    23   ar
     5    20    18    1
     6    18    17   ar
     7    23    16   ar
     8    17    16   ar
     9    16    11    1
    10     2     3   ar
    11     2     1   ar
    12     3     4   ar
    13    24    10    1
    14    24    25    1
    15     1     6   ar
    16     4    10    1
    17     4     5   ar
    18    11    12   am
    19    11     7    1
    20    10     8   am
    21    13    12    2
    22     6     5   ar
    23     5     7    1
    24     8     9    2
    25     8     7    1
    26    12    14    1
    27     7    15    1
    28    25    26   ar
    29    25    31   ar
    30    26    27   ar
    31    31    29   ar
    32    14    15    1
    33    27    28   ar
    34    29    28   ar
    35    28    30    1
