@<TRIPOS>MOLECULE
ZINC14456471_replica-1.pdb
 28 32 0 0 0
SMALL
GASTEIGER

@<TRIPOS>ATOM
      1  C6        10.0020   34.4510   60.9700 C.3     0  <0>0        0.0981
      2  C7        10.3530   35.8800   60.5460 C.3     0  <0>0        0.0267
      3  C8        10.3090   36.7680   61.8240 C.3     0  <0>0        0.0023
      4  C9         8.8340   37.0840   61.9810 C.3     0  <0>0        0.0004
      5  C10        8.2090   36.9380   60.8380 C.3     0  <0>0        0.0045
      6  C11        9.1780   36.5000   59.7650 C.3     0  <0>0        0.0255
      7  C12        8.5390   35.5400   58.8120 C.ar    0  <0>0       -0.0080
      8  C13        7.6440   36.0320   57.8700 C.ar    0  <0>0        0.0168
      9  C14        7.0330   35.1810   56.9720 C.ar    0  <0>0        0.1220
     10  C15        7.3060   33.8260   57.0000 C.ar    0  <0>0        0.0211
     11  C16        8.1940   33.3260   57.9300 C.ar    0  <0>0        0.0154
     12  C17        8.8090   34.1810   58.8340 C.ar    0  <0>0        0.0408
     13  N1         9.7060   33.6590   59.7730 N.pl3   0  <0>0       -0.3305
     14  H16       10.1210   32.7930   59.6350 H       0  <0>0        0.1471
     15  S2         5.9000   35.8260   55.7870 S.O2    0  <0>0        0.0633
     16  O1         6.1090   37.2300   55.7460 O.2     0  <0>0       -0.1528
     17  O2         6.0110   35.0050   54.6320 O.2     0  <0>0       -0.1528
     18  N2         4.3750   35.5910   56.3890 N.3     0  <0>0       -0.1555
     19  C21        3.9750   35.7510   57.7990 C.3     0  <0>0        0.0958
     20  C20        2.4540   36.0400   57.7490 C.3     0  <0>0        0.0206
     21  C19        2.0010   35.1240   56.5810 C.3     0  <0>0        0.0206
     22  C18        3.1960   35.1950   55.6060 C.3     0  <0>0        0.0958
     23  C5        11.1700   33.8430   61.7030 C.ar    0  <0>0        0.0247
     24  C4        12.4490   34.2850   61.7890 C.ar    0  <0>0        0.0039
     25  C3        13.3610   33.5560   62.5280 C.ar    0  <0>0        0.0024
     26  C2        12.9520   32.4210   63.1450 C.ar    0  <0>0        0.0074
     27  C1        13.7460   31.4640   63.9970 C.3     0  <0>0        0.0381
     28  S1        11.2260   32.3570   62.6920 S.2     0  <0>0       -0.0940
@<TRIPOS>BOND
     1    17    15    2
     2    22    18    1
     3    22    21    1
     4    16    15    2
     5    15    18    1
     6    15     9    1
     7    18    19    1
     8    21    20    1
     9     9    10   ar
    10     9     8   ar
    11    10    11   ar
    12    20    19    1
    13     8     7   ar
    14    11    12   ar
    15     7    12   ar
    16     7     6    1
    17    12    13    1
    18    14    13    1
    19     6     2    1
    20     6     5    1
    21    13     1    1
    22     2     1    1
    23     2     3    1
    24     5     4    1
    25     1    23    1
    26    23    24   ar
    27    23    28   ar
    28    24    25   ar
    29     3     4    1
    30    25    26   ar
    31    28    26   ar
    32    26    27    1
