@<TRIPOS>MOLECULE
ZINC41463136_replica-1.pdb
 22 23 0 0 0
SMALL
GASTEIGER

@<TRIPOS>ATOM
      1  C11       11.1980   35.3010   61.9960 C.3     0  <0>0        0.0560
      2  C8        10.3930   35.7190   60.7920 C.ar    0  <0>0       -0.0198
      3  C7         9.7970   36.9650   60.7570 C.ar    0  <0>0       -0.0045
      4  C6         9.0590   37.3480   59.6520 C.ar    0  <0>0       -0.0046
      5  C5         8.9180   36.4850   58.5830 C.ar    0  <0>0       -0.0228
      6  C10        9.5100   35.2360   58.6190 C.ar    0  <0>0       -0.0046
      7  C9        10.2500   34.8540   59.7230 C.ar    0  <0>0       -0.0045
      8  C2         8.1140   36.9020   57.3780 C.3     0  <0>0        0.0189
      9  C1         8.4370   38.3560   57.0290 C.3     0  <0>0        0.0044
     10  C3         6.6210   36.7710   57.6900 C.3     0  <0>0        0.0044
     11  C4         8.4680   36.0020   56.1930 C.3     0  <0>0        0.0044
     12  C12       12.4150   34.4940   61.5400 C.3     0  <0>0        0.0332
     13  C13       12.5470   33.2590   62.3930 C.ar    0  <0>0       -0.0216
     14  C18       11.4380   32.4760   62.6490 C.ar    0  <0>0       -0.0020
     15  C17       11.5580   31.3400   63.4270 C.ar    0  <0>0        0.0293
     16  C16       12.7880   30.9920   63.9580 C.ar    0  <0>0        0.1401
     17  C15       13.8980   31.7800   63.7040 C.ar    0  <0>0        0.0293
     18  F1        12.9060   29.8840   64.7220 F       0  <0>0       -0.2042
     19  C14       13.7770   32.9120   62.9220 C.ar    0  <0>0       -0.0020
     20  C19       11.6650   36.5460   62.7540 C.3     0  <0>0        0.1418
     21  O1        12.0830   36.1740   64.0690 O.3     0  <0>0       -0.3816
     22  H23       11.9120   35.2480   64.2890 H       0  <0>0        0.2105
@<TRIPOS>BOND
     1    11     8    1
     2     9     8    1
     3     8    10    1
     4     8     5    1
     5     5     6   ar
     6     5     4   ar
     7     6     7   ar
     8     4     3   ar
     9     7     2   ar
    10     3     2   ar
    11     2     1    1
    12    12     1    1
    13    12    13    1
    14     1    20    1
    15    13    14   ar
    16    13    19   ar
    17    14    15   ar
    18    20    21    1
    19    19    17   ar
    20    15    16   ar
    21    17    16   ar
    22    16    18    1
    23    21    22    1
