@<TRIPOS>MOLECULE
ZINC11959091_replica-1.pdb
 26 27 0 0 0
SMALL
GASTEIGER

@<TRIPOS>ATOM
      1  C12        8.0500   37.8900   59.0140 C.3     0  <0>0        0.2525
      2  O1         8.7350   36.6860   58.6640 O.3     0  <0>0       -0.4714
      3  C9         9.5680   36.1560   59.5980 C.ar    0  <0>0        0.1387
      4  C8         9.8790   36.8800   60.7400 C.ar    0  <0>0        0.0366
      5  C7        10.7270   36.3410   61.6880 C.ar    0  <0>0       -0.0012
      6  C6        11.2650   35.0810   61.5000 C.ar    0  <0>0       -0.0226
      7  C11       10.9560   34.3580   60.3620 C.ar    0  <0>0       -0.0012
      8  C10       10.1050   34.8910   59.4140 C.ar    0  <0>0        0.0366
      9  C3        12.1890   34.4950   62.5350 C.3     0  <0>0        0.0189
     10  C4        12.2580   35.4290   63.7450 C.3     0  <0>0        0.0044
     11  C5        11.6600   33.1280   62.9760 C.3     0  <0>0        0.0044
     12  C2        13.5880   34.3320   61.9370 C.3     0  <0>0        0.0040
     13  C1        14.4880   33.6040   62.9370 C.3     0  <0>0        0.0003
     14  C13        6.5440   37.6250   59.0610 C.3     0  <0>0        0.2525
     15  O2         6.2500   36.4150   58.3610 O.3     0  <0>0       -0.4714
     16  C14        4.9460   36.1640   58.0820 C.ar    0  <0>0        0.1387
     17  C19        4.5370   36.0170   56.7620 C.ar    0  <0>0        0.0370
     18  C18        3.2150   35.7560   56.4730 C.ar    0  <0>0        0.0049
     19  C17        2.2830   35.6530   57.5100 C.ar    0  <0>0        0.0198
     20  C16        2.7000   35.8020   58.8370 C.ar    0  <0>0        0.0049
     21  C15        4.0240   36.0560   59.1160 C.ar    0  <0>0        0.0370
     22  C20        0.8670   35.3800   57.2060 C.2     0  <0>0        0.0780
     23  S1         0.1420   33.9250   57.7430 S.2     0  <0>0       -0.0352
     24  N1         0.1410   36.2770   56.5100 N.am    0  <0>0       -0.3517
     25  H24       -0.7910   36.0990   56.3120 H       0  <0>0        0.1428
     26  H25        0.5520   37.1020   56.2050 H       0  <0>0        0.1428
@<TRIPOS>BOND
     1    26    24    1
     2    25    24    1
     3    18    17   ar
     4    18    19   ar
     5    24    22    1
     6    17    16   ar
     7    22    19    1
     8    22    23    2
     9    19    20   ar
    10    16    15    1
    11    16    21   ar
    12    15    14    1
    13     2     1    1
    14     2     3    1
    15    20    21   ar
    16     1    14    1
    17     8     3   ar
    18     8     7   ar
    19     3     4   ar
    20     7     6   ar
    21     4     5   ar
    22     6     5   ar
    23     6     9    1
    24    12     9    1
    25    12    13    1
    26     9    11    1
    27     9    10    1
