@<TRIPOS>MOLECULE
ZINC14197133_replica-1.pdb
 25 27 0 0 0
SMALL
GASTEIGER

@<TRIPOS>ATOM
      1  C11        8.1370   37.1510   59.1060 C.2     0  <0>0        0.2758
      2  O2         8.4800   38.3060   58.9420 O.2     0  <0>0       -0.2675
      3  N2         8.8090   36.3650   59.9700 N.am    0  <0>0       -0.2879
      4  H9         8.5350   35.4430   60.1010 H       0  <0>0        0.1507
      5  C3         6.9870   36.6100   58.3580 C.2     0  <0>0        0.2051
      6  C2         7.0100   36.1130   57.0890 C.3     0  <0>0        0.2247
      7  C1         8.2140   36.0120   56.1890 C.3     0  <0>0        0.0554
      8  O1         5.7580   35.7310   56.7920 O.2     0  <0>0       -0.4480
      9  C4         4.9770   35.9870   57.8580 C.2     0  <0>0        0.2775
     10  N1         5.7090   36.5170   58.8050 N.2     0  <0>0       -0.3639
     11  C5         3.5270   35.7090   57.9460 C.ar    0  <0>0        0.0660
     12  C10        3.0040   35.0690   59.0700 C.ar    0  <0>0        0.0058
     13  C9         1.6500   34.8120   59.1470 C.ar    0  <0>0        0.0002
     14  C8         0.8130   35.1890   58.1110 C.ar    0  <0>0        0.0000
     15  C7         1.3250   35.8240   56.9940 C.ar    0  <0>0        0.0002
     16  C6         2.6760   36.0910   56.9080 C.ar    0  <0>0        0.0058
     17  C12        9.9510   36.9030   60.7130 C.3     0  <0>0        0.1677
     18  C13       10.7300   35.7920   61.2870 C.1     0  <0>0       -0.0644
     19  C14       11.3520   34.9070   61.7440 C.1     0  <0>0       -0.0627
     20  C15       12.1100   33.8280   62.3010 C.ar    0  <0>0        0.0417
     21  C20       11.4750   32.6410   62.6670 C.ar    0  <0>0        0.0082
     22  C19       12.2110   31.6050   63.2020 C.ar    0  <0>0        0.0006
     23  C18       13.5760   31.7400   63.3770 C.ar    0  <0>0        0.0000
     24  C17       14.2130   32.9140   63.0160 C.ar    0  <0>0        0.0006
     25  C16       13.4890   33.9570   62.4750 C.ar    0  <0>0        0.0082
@<TRIPOS>BOND
     1     7     6    1
     2     8     6    1
     3     8     9    1
     4    16    15   ar
     5    16    11   ar
     6    15    14   ar
     7     6     5    1
     8     9    11    1
     9     9    10    2
    10    11    12   ar
    11    14    13   ar
    12     5    10    2
    13     5     1    1
    14     2     1    2
    15    12    13   ar
    16     1     3   am
    17     3     4    1
    18     3    17    1
    19    17    18    1
    20    18    19    3
    21    19    20    1
    22    20    25   ar
    23    20    21   ar
    24    25    24   ar
    25    21    22   ar
    26    24    23   ar
    27    22    23   ar
