@<TRIPOS>MOLECULE
ZINC19913393_replica-1.pdb
 20 21 0 0 0
SMALL
GASTEIGER

@<TRIPOS>ATOM
      1  C7        -0.8850   27.9580   52.8640 C.ar    0  <0>0        0.0796
      2  C8        -1.6740   27.6670   51.7600 C.ar    0  <0>0        0.0174
      3  C9        -1.6370   26.4050   51.1970 C.ar    0  <0>0        0.0015
      4  C10       -0.8160   25.4310   51.7330 C.ar    0  <0>0        0.0032
      5  C11       -0.0290   25.7120   52.8340 C.ar    0  <0>0        0.0385
      6  C12       -0.0550   26.9760   53.4000 C.ar    0  <0>0        0.1597
      7  N1        -0.9210   29.2350   53.4360 N.pl3   0  <0>0       -0.3278
      8  H8        -0.2280   30.0130   53.0860 H       0  <0>0        0.1472
      9  C2        -1.8830   29.5350   54.5000 C.3     0  <0>0        0.0980
     10  C1        -2.9240   30.5280   53.9810 C.3     0  <0>0        0.0266
     11  C3        -1.1580   30.1350   55.6760 C.ar    0  <0>0        0.0250
     12  S1         0.0280   31.4700   55.7050 S.2     0  <0>0       -0.0892
     13  C6         0.3370   31.4930   57.4640 C.ar    0  <0>0        0.0352
     14  C5        -0.4660   30.4950   57.9030 C.ar    0  <0>0        0.0072
     15  C4        -1.2370   29.8020   56.9890 C.ar    0  <0>0        0.0043
     16  O1         0.7240   27.2560   54.4800 O.3     0  <0>0       -0.4032
     17  C13        0.3910   26.6010   55.7050 C.3     0  <0>0        0.5753
     18  F1        -0.9740   26.7600   55.9640 F       0  <0>0       -0.1328
     19  F2         0.6900   25.2380   55.6010 F       0  <0>0       -0.1328
     20  F3         1.1330   27.1620   56.7500 F       0  <0>0       -0.1328
@<TRIPOS>BOND
     1     3     4   ar
     2     3     2   ar
     3     4     5   ar
     4     2     1   ar
     5     5     6   ar
     6     1     6   ar
     7     1     7    1
     8     8     7    1
     9     6    16    1
    10     7     9    1
    11    10     9    1
    12    16    17    1
    13     9    11    1
    14    19    17    1
    15    11    12   ar
    16    11    15   ar
    17    17    18    1
    18    17    20    1
    19    12    13   ar
    20    15    14   ar
    21    13    14   ar
