@<TRIPOS>MOLECULE
ZINC52341610_replica-1.pdb
 20 21 0 0 0
SMALL
GASTEIGER

@<TRIPOS>ATOM
      1  C9         0.8110   31.6300   56.1200 C.3     0  <0>0        0.1625
      2  N2         1.3030   32.8350   56.0630 N.3     0  <0>0       -0.2776
      3  C10        1.2210   33.7360   57.1980 C.3     0  <0>0        0.0666
      4  C11        0.1330   33.2710   58.2040 C.3     0  <0>0        0.0759
      5  S1         0.0850   31.4870   57.7450 S.3     0  <0>0       -0.1076
      6  H29        1.7330   33.1350   55.2470 H       0  <0>0        0.1252
      7  N1         0.8400   30.6710   55.1330 N.3     0  <0>0       -0.2784
      8  H17        1.6360   30.5560   54.5920 H       0  <0>0        0.1252
      9  C2        -0.3330   29.8240   54.9010 C.3     0  <0>0        0.0557
     10  C1        -1.4160   30.6380   54.1890 C.3     0  <0>0        0.0171
     11  C3         0.0640   28.6310   54.0310 C.3     0  <0>0        0.0145
     12  C8         0.2830   27.4040   54.9170 C.3     0  <0>0        0.0013
     13  C7         0.6800   26.2100   54.0480 C.3     0  <0>0        0.0000
     14  C6        -0.4360   25.9180   53.0420 C.3     0  <0>0        0.0000
     15  C5        -0.6560   27.1460   52.1550 C.3     0  <0>0        0.0000
     16  C4        -1.0520   28.3400   53.0240 C.3     0  <0>0        0.0013
     17  C12        0.8730   35.1400   56.6990 C.3     0  <0>0        0.0167
     18  C13        1.9940   36.1080   57.0800 C.3     0  <0>0        0.0014
     19  C14        2.3550   35.9160   58.5550 C.3     0  <0>0        0.0000
     20  C15        3.2240   35.8320   56.2140 C.3     0  <0>0        0.0000
@<TRIPOS>BOND
     1    15    16    1
     2    15    14    1
     3    16    11    1
     4    14    13    1
     5    11     9    1
     6    11    12    1
     7    13    12    1
     8    10     9    1
     9     8     7    1
    10     9     7    1
    11     7     1    1
    12     6     2    1
    13     2     1    1
    14     2     3    1
    15     1     5    1
    16    20    18    1
    17    17    18    1
    18    17     3    1
    19    18    19    1
    20     3     4    1
    21     5     4    1
