@<TRIPOS>MOLECULE
ZINC32209066_replica-1.pdb
 23 24 0 0 0
SMALL
GASTEIGER

@<TRIPOS>ATOM
      1  C10        0.1060   28.2730   56.9700 C.3     0  <0>0        0.1521
      2  C7        -0.0890   27.8000   55.5530 C.ar    0  <0>0        0.0059
      3  C6        -0.7940   28.5780   54.6560 C.ar    0  <0>0       -0.0022
      4  C5        -0.9730   28.1440   53.3550 C.ar    0  <0>0       -0.0045
      5  C4        -0.4450   26.9300   52.9530 C.ar    0  <0>0       -0.0225
      6  C9         0.2620   26.1530   53.8510 C.ar    0  <0>0       -0.0045
      7  C8         0.4440   26.5890   55.1490 C.ar    0  <0>0       -0.0022
      8  C2        -0.6390   26.4570   51.5350 C.3     0  <0>0        0.0224
      9  C1        -0.8570   24.9430   51.5290 C.3     0  <0>0        0.0047
     10  C3        -1.8590   27.1510   50.9290 C.3     0  <0>0        0.0047
     11  C11       -0.3070   29.7430   57.0790 C.3     0  <0>0        0.1213
     12  N1         0.8910   30.5830   57.1600 N.pl3   0  <0>0       -0.3304
     13  H15        1.8230   30.2600   56.6720 H       0  <0>0        0.1469
     14  C12        0.8500   31.7930   57.8580 C.ar    0  <0>0        0.0457
     15  C17        0.7690   32.9930   57.1650 C.ar    0  <0>0        0.0280
     16  C16        0.7280   34.1880   57.8580 C.ar    0  <0>0        0.0863
     17  C15        0.7660   34.1890   59.2430 C.ar    0  <0>0        0.1507
     18 Cl          0.6280   35.6900   56.9920 Cl      0  <0>0       -0.0799
     19  C14        0.8460   32.9930   59.9360 C.ar    0  <0>0        0.0318
     20  F1         0.7260   35.3580   59.9180 F       0  <0>0       -0.2033
     21  C13        0.8890   31.7970   59.2470 C.ar    0  <0>0        0.0167
     22  O1         1.4820   28.1380   57.3340 O.3     0  <0>0       -0.3783
     23  H19        1.9460   28.8670   58.0140 H       0  <0>0        0.2109
@<TRIPOS>BOND
     1    10     8    1
     2     9     8    1
     3     8     5    1
     4     5     4   ar
     5     5     6   ar
     6     4     3   ar
     7     6     7   ar
     8     3     2   ar
     9     7     2   ar
    10     2     1    1
    11    13    12    1
    12     1    11    1
    13     1    22    1
    14    18    16    1
    15    11    12    1
    16    12    14    1
    17    15    16   ar
    18    15    14   ar
    19    22    23    1
    20    16    17   ar
    21    14    21   ar
    22    17    20    1
    23    17    19   ar
    24    21    19   ar
