@<TRIPOS>MOLECULE
ZINC35451897_replica-1.pdb
 19 20 0 0 0
SMALL
GASTEIGER

@<TRIPOS>ATOM
      1  N1        10.2490   34.2970   61.2560 N.pl3   0  <0>0       -0.3340
      2  H12        9.3550   33.9270   61.3320 H       0  <0>0        0.1468
      3  C2        10.4740   35.5120   60.4690 C.3     0  <0>0        0.0695
      4  C1         9.9730   36.7270   61.2530 C.3     0  <0>0        0.0212
      5  C3         9.7140   35.4100   59.1450 C.3     0  <0>0        0.0274
      6  C4         8.9250   36.6990   58.9080 C.3     0  <0>0        0.0662
      7  C5         8.4000   36.7150   57.4970 C.ar    0  <0>0        0.1230
      8  O1         7.7380   37.7290   56.9160 O.2     0  <0>0       -0.4547
      9  C8         7.4260   37.3970   55.6530 C.ar    0  <0>0        0.1791
     10  C7         7.8830   36.1530   55.4160 C.ar    0  <0>0        0.0434
     11  C6         8.5110   35.7140   56.6040 C.ar    0  <0>0        0.0362
     12  C9        11.3220   33.6700   61.8970 C.ar    0  <0>0        0.0456
     13  C14       11.1350   32.4520   62.5350 C.ar    0  <0>0        0.0280
     14  C13       12.1990   31.8310   63.1640 C.ar    0  <0>0        0.0863
     15  C12       13.4480   32.4310   63.1660 C.ar    0  <0>0        0.1507
     16 Cl         11.9680   30.3040   63.9540 Cl      0  <0>0       -0.0799
     17  C11       13.6340   33.6490   62.5360 C.ar    0  <0>0        0.0318
     18  F1        14.4850   31.8260   63.7850 F       0  <0>0       -0.2033
     19  C10       12.5750   34.2690   61.9010 C.ar    0  <0>0        0.0167
@<TRIPOS>BOND
     1    10     9   ar
     2    10    11   ar
     3     9     8   ar
     4    11     7   ar
     5     8     7   ar
     6     7     6    1
     7     6     5    1
     8     5     3    1
     9     3     4    1
    10     3     1    1
    11     1     2    1
    12     1    12    1
    13    12    19   ar
    14    12    13   ar
    15    19    17   ar
    16    13    14   ar
    17    17    15   ar
    18    14    15   ar
    19    14    16    1
    20    15    18    1
