@<TRIPOS>MOLECULE
ZINC37845215_replica-1.pdb
 18 18 0 0 0
SMALL
GASTEIGER

@<TRIPOS>ATOM
      1  N1         6.9220   35.2860   57.2770 N.am    0  <0>0       -0.2765
      2  C9         8.1520   35.8360   57.2740 C.2     0  <0>0        0.2649
      3  O1         8.6330   36.2460   56.2330 O.2     0  <0>0       -0.2683
      4  C4         6.2220   35.0500   56.0130 C.3     0  <0>0        0.0937
      5  C3         5.3570   36.2650   55.6730 C.3     0  <0>0        0.0215
      6  C2         3.9600   35.7990   55.2590 C.3     0  <0>0        0.0018
      7  C1         3.9860   34.2950   54.9810 C.3     0  <0>0        0.0001
      8  C5         6.2850   34.9260   58.5460 C.3     0  <0>0        0.0757
      9  C6         5.5320   33.6040   58.3820 C.3     0  <0>0        0.0215
     10  C7         5.3010   36.0250   58.9530 C.3     0  <0>0        0.0198
     11  C8         3.8820   35.4530   58.9840 C.3     0  <0>0        0.0018
     12  C10        8.9140   35.9390   58.5240 C.ar    0  <0>0        0.1148
     13  N2         8.9480   37.0250   59.3670 N.ar    0  <0>0       -0.3201
     14  C13        9.7590   36.7350   60.4150 C.ar    0  <0>0        0.0828
     15  C14        8.2280   38.2850   59.1680 C.3     0  <0>0        0.1306
     16  C12       10.2530   35.4840   60.2530 C.ar    0  <0>0        0.0533
     17  C11        9.7280   34.9670   59.0640 C.ar    0  <0>0        0.0300
     18 Br         11.4390   34.5950   61.4270 Br      0  <0>0       -0.0474
@<TRIPOS>BOND
     1     7     6    1
     2     6     5    1
     3     5     4    1
     4     4     1    1
     5     3     2    2
     6     2     1   am
     7     2    12    1
     8     1     8    1
     9     9     8    1
    10    12    17   ar
    11    12    13   ar
    12     8    10    1
    13    10    11    1
    14    17    16   ar
    15    15    13    1
    16    13    14   ar
    17    16    14   ar
    18    16    18    1
