@<TRIPOS>MOLECULE
ZINC37067735_replica-1.pdb
 18 18 0 0 0
SMALL
GASTEIGER

@<TRIPOS>ATOM
      1  C5        10.3270   35.9160   60.6650 C.ar    0  <0>0        0.0447
      2  C6        10.1930   35.0140   59.6170 C.ar    0  <0>0        0.0148
      3  C7         9.3520   35.3040   58.5610 C.ar    0  <0>0        0.0077
      4  C8         8.6390   36.4970   58.5470 C.ar    0  <0>0        0.0328
      5  C9         8.7740   37.3980   59.5970 C.ar    0  <0>0        0.0077
      6  C10        9.6110   37.1060   60.6550 C.ar    0  <0>0        0.0148
      7  N1        11.1800   35.6210   61.7370 N.pl3   0  <0>0       -0.3326
      8  H10       11.2650   36.2450   62.4740 H       0  <0>0        0.1468
      9  C4        11.9430   34.3710   61.7440 C.3     0  <0>0        0.0879
     10  C3        12.8350   34.3250   62.9850 C.3     0  <0>0        0.0328
     11  C2        14.1220   33.5630   62.6600 C.3     0  <0>0        0.0593
     12  S1        14.2700   32.1300   63.7630 S.3     0  <0>0       -0.1393
     13  C1        12.8480   31.0910   63.3280 C.3     0  <0>0        0.0692
     14  S2         7.5670   36.8670   57.2000 S.3     0  <0>0       -0.0144
     15  C11        7.8830   38.6190   56.8550 C.3     0  <0>0        0.4477
     16  F1         7.3340   39.4010   57.8770 F       0  <0>0       -0.1600
     17  F2         9.2630   38.8400   56.7870 F       0  <0>0       -0.1600
     18  F3         7.2940   38.9670   55.6350 F       0  <0>0       -0.1600
@<TRIPOS>BOND
     1    18    15    1
     2    17    15    1
     3    15    14    1
     4    15    16    1
     5    14     4    1
     6     4     3   ar
     7     4     5   ar
     8     3     2   ar
     9     5     6   ar
    10     2     1   ar
    11     6     1   ar
    12     1     7    1
    13     7     9    1
    14     7     8    1
    15     9    10    1
    16    11    10    1
    17    11    12    1
    18    13    12    1
