@<TRIPOS>MOLECULE
ZINC06734306_replica-1.pdb
 31 34 0 0 0
SMALL
GASTEIGER

@<TRIPOS>ATOM
      1  C11       -0.4070   30.2900   56.7270 C.3     0  <0>0        0.0582
      2  C10       -0.7090   29.6480   55.3970 C.ar    0  <0>0        0.0005
      3  C7        -0.2770   28.3220   54.9510 C.ar    0  <0>0        0.0130
      4  C6         0.4680   27.2960   55.5360 C.ar    0  <0>0        0.0012
      5  C8        -0.7960   28.1600   53.6540 C.ar    0  <0>0        0.0523
      6  C5         0.6980   26.1430   54.8400 C.ar    0  <0>0       -0.0002
      7  C4         0.1920   25.9800   53.5580 C.ar    0  <0>0       -0.0028
      8  C3        -0.5500   26.9770   52.9640 C.ar    0  <0>0       -0.0066
      9  N1        -1.4820   29.3120   53.3430 N.ar    0  <0>0       -0.3525
     10  H1        -1.9420   29.4790   52.5050 H       0  <0>0        0.1660
     11  C9        -1.4200   30.1880   54.3940 C.ar    0  <0>0        0.0684
     12  C2        -1.0920   26.7880   51.5700 C.3     0  <0>0        0.0278
     13  C1        -1.0880   25.2990   51.2180 C.3     0  <0>0        0.0051
     14  C12       -1.0700   31.6670   56.7910 C.3     0  <0>0        0.0939
     15  C13       -0.0300   32.7100   57.1090 C.2     0  <0>0        0.2231
     16  O1         1.0550   32.6690   56.5680 O.2     0  <0>0       -0.2751
     17  N2        -0.3050   33.6890   57.9940 N.am    0  <0>0       -0.3043
     18  H14       -1.1730   33.7230   58.4260 H       0  <0>0        0.1494
     19  C14        0.7060   34.7040   58.3020 C.3     0  <0>0        0.0893
     20  C15        1.2230   34.4900   59.7250 C.3     0  <0>0        0.0196
     21  C16        0.1410   33.8090   60.5650 C.3     0  <0>0        0.0017
     22  C17        2.4710   33.6050   59.6880 C.3     0  <0>0        0.0017
     23  C18       -0.9440   29.4220   57.8350 C.ar    0  <0>0        0.0192
     24  C23       -0.4170   29.5250   59.1130 C.ar    0  <0>0        0.1727
     25  C22       -0.9150   28.7210   60.1350 C.ar    0  <0>0        0.1761
     26  O2         0.5720   30.3150   59.6220 O.3     0  <0>0       -0.4349
     27  C21       -1.9360   27.8230   59.8700 C.ar    0  <0>0        0.0402
     28  O3        -0.2350   29.0050   61.2840 O.3     0  <0>0       -0.4346
     29  C20       -2.4570   27.7260   58.5930 C.ar    0  <0>0        0.0030
     30  C19       -1.9620   28.5230   57.5780 C.ar    0  <0>0       -0.0007
     31  C24        0.9530   29.7000   60.8670 C.3     0  <0>0        0.4294
@<TRIPOS>BOND
     1    13    12    1
     2    12     8    1
     3    10     9    1
     4     8     7   ar
     5     8     5   ar
     6     9     5   ar
     7     9    11   ar
     8     7     6   ar
     9     5     3   ar
    10    11     2   ar
    11     6     4   ar
    12     3     2   ar
    13     3     4   ar
    14     2     1    1
    15    16    15    2
    16     1    14    1
    17     1    23    1
    18    14    15    1
    19    15    17   am
    20    30    23   ar
    21    30    29   ar
    22    23    24   ar
    23    17    19    1
    24    17    18    1
    25    19    20    1
    26    29    27   ar
    27    24    26    1
    28    24    25   ar
    29    26    31    1
    30    22    20    1
    31    20    21    1
    32    27    25   ar
    33    25    28    1
    34    31    28    1
