@<TRIPOS>MOLECULE
ZINC02941572_replica-1.pdb
 29 31 0 0 0
SMALL
GASTEIGER

@<TRIPOS>ATOM
      1  C5        -0.0540   27.5550   54.9840 C.2     0  <0>0        0.1803
      2  C6        -0.4970   27.2740   53.6660 C.3     0  <0>0        0.1426
      3  C7        -0.2770   26.0330   53.0600 C.2     0  <0>0       -0.0110
      4  C8        -0.7250   25.8160   51.7900 C.2     0  <0>0       -0.0036
      5  C9        -1.3990   26.8130   51.0900 C.2     0  <0>0        0.0020
      6  C10       -1.6290   28.0330   51.6530 C.2     0  <0>0        0.0293
      7  C11       -1.1820   28.2890   52.9570 C.2     0  <0>0        0.1336
      8  N2        -1.3850   29.4720   53.5550 N.2     0  <0>0       -0.3386
      9  C12       -0.9520   29.6820   54.7850 C.1     0  <0>0        0.1692
     10  N3        -0.3030   28.7550   55.4870 N.2     0  <0>0       -0.3236
     11  S1        -1.2430   31.2530   55.5260 S.3     0  <0>0       -0.0083
     12  C13        0.1970   31.3550   56.6190 C.3     0  <0>0        0.1590
     13  C14        0.3110   32.7540   57.1690 C.2     0  <0>0        0.2348
     14  O1         0.1370   32.9570   58.3510 O.2     0  <0>0       -0.2741
     15  N4         0.6080   33.7790   56.3450 N.am    0  <0>0       -0.2997
     16  H17        0.7490   33.6160   55.4000 H       0  <0>0        0.1498
     17  C15        0.7200   35.1380   56.8790 C.3     0  <0>0        0.1163
     18  C16        2.1650   35.4420   57.1810 C.ar    0  <0>0       -0.0026
     19  C21        2.5600   35.6990   58.4810 C.ar    0  <0>0       -0.0026
     20  C20        3.8860   35.9780   58.7580 C.ar    0  <0>0       -0.0003
     21  C19        4.8160   36.0000   57.7360 C.ar    0  <0>0       -0.0000
     22  C18        4.4200   35.7440   56.4360 C.ar    0  <0>0       -0.0003
     23  C17        3.0960   35.4590   56.1590 C.ar    0  <0>0       -0.0026
     24  N1         0.6190   26.6050   55.7210 N.pl3   0  <0>0       -0.3105
     25  H10        1.4500   26.2320   55.3890 H       0  <0>0        0.1489
     26  C4         0.0790   26.1590   57.0080 C.3     0  <0>0        0.0888
     27  C3        -0.0290   24.6330   57.0140 C.3     0  <0>0        0.0212
     28  C2         0.5910   24.0740   55.7310 C.3     0  <0>0        0.0017
     29  C1         0.5520   22.5450   55.7720 C.3     0  <0>0        0.0001
@<TRIPOS>BOND
     1     5     6    2
     2     5     4    1
     3     6     7    1
     4     4     3    2
     5     7     8    2
     6     7     2    1
     7     3     2    1
     8     8     9    2
     9     2     1    1
    10     9    10    2
    11     9    11    1
    12     1    10    2
    13     1    24    1
    14    25    24    1
    15    16    15    1
    16    11    12    1
    17    24    26    1
    18    28    29    1
    19    28    27    1
    20    23    22   ar
    21    23    18   ar
    22    15    17    1
    23    15    13   am
    24    22    21   ar
    25    12    13    1
    26    17    18    1
    27    26    27    1
    28    13    14    2
    29    18    19   ar
    30    21    20   ar
    31    19    20   ar
