@<TRIPOS>MOLECULE
ZINC21660324_replica-1.pdb
 28 32 0 0 0
SMALL
GASTEIGER

@<TRIPOS>ATOM
      1  C1         0.5560   31.5700   61.2280 C.3     0  <0>0        0.0554
      2  C2         1.0600   30.3830   60.4480 C.2     0  <0>0        0.0986
      3  C3         0.7490   30.0530   59.1320 C.2     0  <0>0        0.0564
      4  C4         1.4500   28.8990   58.8920 C.3     0  <0>0        0.2948
      5  O1         2.1070   28.6230   60.0120 O.2     0  <0>0       -0.3560
      6  N1         1.8810   29.4540   60.8710 N.2     0  <0>0       -0.0853
      7  N2         1.3810   28.2650   57.6680 N.pl3   0  <0>0       -0.2985
      8  C5         0.3840   28.6270   56.7940 C.2     0  <0>0        0.0274
      9  C6        -0.3480   29.7500   56.9540 C.2     0  <0>0        0.0437
     10  C7        -0.1240   30.7060   58.1080 C.2     0  <0>0        0.0060
     11  C14       -1.3640   30.0870   56.0410 C.2     0  <0>0        0.1742
     12  O2        -2.0230   31.0910   56.2300 O.2     0  <0>0       -0.2913
     13  C15       -1.6510   29.2350   54.8360 C.3     0  <0>0        0.0739
     14  C16       -0.3670   28.5060   54.4270 C.3     0  <0>0        0.0356
     15  C17        0.1310   27.7000   55.6270 C.3     0  <0>0        0.0458
     16  H6         2.1160   27.4870   57.4110 H       0  <0>0        0.1501
     17  C8         0.5440   31.9570   57.6020 C.ar    0  <0>0        0.0000
     18  C13        0.0380   33.1980   57.9430 C.ar    0  <0>0       -0.0000
     19  C12        0.6510   34.3460   57.4780 C.ar    0  <0>0       -0.0000
     20  C11        1.7720   34.2540   56.6730 C.ar    0  <0>0       -0.0000
     21  C10        2.2790   33.0140   56.3330 C.ar    0  <0>0       -0.0000
     22  C9         1.6670   31.8660   56.8010 C.ar    0  <0>0       -0.0000
     23  C18       -0.6540   27.5780   53.2750 C.ar    0  <0>0       -0.0217
     24  C23       -1.3890   28.0260   52.1930 C.ar    0  <0>0       -0.0043
     25  C22       -1.6530   27.1750   51.1360 C.ar    0  <0>0       -0.0003
     26  C21       -1.1820   25.8760   51.1620 C.ar    0  <0>0       -0.0000
     27  C20       -0.4470   25.4270   52.2430 C.ar    0  <0>0       -0.0003
     28  C19       -0.1800   26.2800   53.2980 C.ar    0  <0>0       -0.0043
@<TRIPOS>BOND
     1    25    26   ar
     2    25    24   ar
     3    26    27   ar
     4    24    23   ar
     5    27    28   ar
     6    23    28   ar
     7    23    14    1
     8    14    13    1
     9    14    15    1
    10    13    11    1
    11    15     8    1
    12    11    12    2
    13    11     9    1
    14    21    20   ar
    15    21    22   ar
    16    20    19   ar
    17     8     9    2
    18     8     7    1
    19    22    17   ar
    20     9    10    1
    21    16     7    1
    22    19    18   ar
    23    17    18   ar
    24    17    10    1
    25     7     4    1
    26    10     3    2
    27     4     3    1
    28     4     5    1
    29     3     2    1
    30     5     6    1
    31     2     6    2
    32     2     1    1
