@<TRIPOS>MOLECULE
ZINC09142095_replica-1.pdb
 23 24 0 0 0
SMALL
GASTEIGER

@<TRIPOS>ATOM
      1  C1        -1.8910   27.6690   51.2120 C.3     0  <0>0        0.0320
      2  C2        -1.0500   27.3210   52.4130 C.ar    0  <0>0       -0.0085
      3  C3        -0.4610   26.1160   52.5300 C.ar    0  <0>0        0.0055
      4  S1         0.3900   26.2270   54.0910 S.2     0  <0>0       -0.0762
      5  C4        -0.0550   27.8370   54.5480 C.ar    0  <0>0        0.0901
      6  C5        -0.8480   28.2610   53.4880 C.ar    0  <0>0        0.0843
      7  C6        -1.4350   29.5660   53.4650 C.1     0  <0>0        0.1019
      8  N1        -1.9010   30.6030   53.4460 N.1     0  <0>0       -0.1908
      9  C15       -0.5080   24.9550   51.5710 C.3     0  <0>0        0.0379
     10  N2         0.2940   28.5340   55.6950 N.am    0  <0>0       -0.2749
     11  C7        -0.5020   28.4860   56.7810 C.2     0  <0>0        0.2499
     12  O1        -1.5270   27.8320   56.7560 O.2     0  <0>0       -0.2698
     13  H4         1.1120   29.0560   55.7160 H       0  <0>0        0.1557
     14  C8        -0.1300   29.2270   58.0020 C.ar    0  <0>0        0.0556
     15  C13        0.9550   30.1080   57.9830 C.ar    0  <0>0        0.0190
     16  C12        1.2990   30.7980   59.1260 C.ar    0  <0>0        0.0925
     17  C11        0.5690   30.6180   60.2950 C.ar    0  <0>0        0.1596
     18 Cl          2.6460   31.8930   59.1040 Cl      0  <0>0       -0.0791
     19  C10       -0.5100   29.7420   60.3180 C.ar    0  <0>0        0.0925
     20  C9        -0.8640   29.0530   59.1780 C.ar    0  <0>0        0.0190
     21 Cl         -1.4170   29.5210   61.7810 Cl      0  <0>0       -0.0791
     22  O2         0.9120   31.2990   61.4190 O.3     0  <0>0       -0.4697
     23  C14        0.3380   32.5960   61.5920 C.3     0  <0>0        0.2525
@<TRIPOS>BOND
     1     1     2    1
     2     9     3    1
     3     2     3   ar
     4     2     6   ar
     5     3     4   ar
     6     8     7    3
     7     7     6    1
     8     6     5   ar
     9     4     5   ar
    10     5    10    1
    11    10    13    1
    12    10    11   am
    13    12    11    2
    14    11    14    1
    15    15    14   ar
    16    15    16   ar
    17    14    20   ar
    18    18    16    1
    19    16    17   ar
    20    20    19   ar
    21    17    19   ar
    22    17    22    1
    23    19    21    1
    24    22    23    1
