@<TRIPOS>MOLECULE
ZINC45213285_replica-1.pdb
 22 22 0 0 0
SMALL
GASTEIGER

@<TRIPOS>ATOM
      1  C9         7.1560   35.5930   57.2240 C.3     0  <0>0        0.1629
      2  C10        6.1120   34.4770   57.3100 C.3     0  <0>0        0.0353
      3  C11        7.3380   35.9860   55.8170 C.1     0  <0>0        0.0898
      4  N1         7.4790   36.2900   54.7310 N.1     0  <0>0       -0.1945
      5  C8         8.4850   35.0900   57.7890 C.3     0  <0>0        0.2340
      6  O1         8.2420   34.3220   58.9700 O.3     0  <0>0       -0.4732
      7  C7         9.2640   34.2150   59.8590 C.ar    0  <0>0        0.1346
      8  C2         9.3640   33.0950   60.6700 C.ar    0  <0>0        0.0118
      9  C1         8.3420   31.9940   60.5660 C.3     0  <0>0        0.0342
     10  C3        10.4070   32.9870   61.5700 C.ar    0  <0>0       -0.0056
     11  C4        11.3460   33.9970   61.6670 C.ar    0  <0>0       -0.0229
     12  C5        11.2440   35.1190   60.8640 C.ar    0  <0>0       -0.0012
     13  C6        10.2040   35.2310   59.9620 C.ar    0  <0>0        0.0362
     14  C15       12.4830   33.8780   62.6500 C.3     0  <0>0        0.0189
     15  C16       12.4510   32.4940   63.3000 C.3     0  <0>0        0.0044
     16  C17       13.8130   34.0680   61.9180 C.3     0  <0>0        0.0044
     17  C18       12.3370   34.9520   63.7300 C.3     0  <0>0        0.0044
     18  N2         6.7000   36.7520   58.0020 N.3     0  <0>0       -0.2866
     19  H12        6.0460   37.3080   57.4720 H       0  <0>0        0.1241
     20  C12        7.8380   37.5650   58.4520 C.3     0  <0>0        0.0548
     21  C13        7.9130   38.8440   57.6170 C.3     0  <0>0        0.0171
     22  C14        7.6540   37.9270   59.9260 C.3     0  <0>0        0.0171
@<TRIPOS>BOND
     1     4     3    3
     2     3     1    1
     3     1     2    1
     4     1     5    1
     5     1    18    1
     6    19    18    1
     7    21    20    1
     8     5     6    1
     9    18    20    1
    10    20    22    1
    11     6     7    1
    12     7    13   ar
    13     7     8   ar
    14    13    12   ar
    15     9     8    1
    16     8    10   ar
    17    12    11   ar
    18    10    11   ar
    19    11    14    1
    20    16    14    1
    21    14    15    1
    22    14    17    1
