@<TRIPOS>MOLECULE
ZINC48770465_replica-1.pdb
 21 23 0 0 0
SMALL
GASTEIGER

@<TRIPOS>ATOM
      1  C2         0.5140   31.7190   56.8690 C.ar    0  <0>0        0.1734
      2  C3         0.3910   30.7520   55.8880 C.ar    0  <0>0        0.0521
      3  C4         0.0440   29.4460   56.2390 C.ar    0  <0>0        0.0893
      4  C5        -0.1770   29.1220   57.5760 C.ar    0  <0>0        0.0220
      5  C6        -0.0530   30.0900   58.5510 C.ar    0  <0>0        0.0720
      6  C7         0.2970   31.3870   58.2040 C.ar    0  <0>0        0.1740
      7 Br         -0.3540   29.6470   60.3650 Br      0  <0>0       -0.0457
      8  C8        -0.0890   28.4070   55.1910 C.1     0  <0>0        0.1378
      9  N2         0.3360   27.1760   55.4420 N.2     0  <0>0       -0.3323
     10  C11        0.2260   26.2240   54.5290 C.2     0  <0>0        0.1842
     11  C10       -0.3320   26.5330   53.2950 C.3     0  <0>0        0.1134
     12 Cl          0.7780   24.6130   54.8660 Cl      0  <0>0       -0.0512
     13  C9        -0.7600   27.8290   53.0640 C.2     0  <0>0        0.1062
     14  C12       -0.5830   25.6840   52.0710 C.3     0  <0>0        0.0152
     15  N1        -0.6260   28.7310   54.0220 N.2     0  <0>0       -0.3482
     16  C14       -1.3280   27.9360   51.6670 C.3     0  <0>0        0.0559
     17  C13       -1.6000   26.4820   51.2280 C.3     0  <0>0        0.0080
     18  O1         0.8510   32.9920   56.5290 O.3     0  <0>0       -0.4683
     19  C1         2.2290   33.3510   56.6440 C.3     0  <0>0        0.2526
     20  O2         0.4240   32.3370   59.1680 O.3     0  <0>0       -0.5025
     21  H6         0.6510   33.2140   58.8290 H       0  <0>0        0.2923
@<TRIPOS>BOND
     1    17    16    1
     2    17    14    1
     3    16    13    1
     4    14    11    1
     5    13    11    1
     6    13    15    2
     7    11    10    1
     8    15     8    2
     9    10    12    1
    10    10     9    2
    11     8     9    2
    12     8     3    1
    13     2     3   ar
    14     2     1   ar
    15     3     4   ar
    16    18    19    1
    17    18     1    1
    18     1     6   ar
    19     4     5   ar
    20     6     5   ar
    21     6    20    1
    22     5     7    1
    23    21    20    1
