@<TRIPOS>MOLECULE
ZINC65354245_replica-1.pdb
 21 22 0 0 0
SMALL
GASTEIGER

@<TRIPOS>ATOM
      1  C2         9.2010   35.9410   58.7380 C.ar    0  <0>0        0.1450
      2  C3         9.8710   34.9570   59.4430 C.ar    0  <0>0        0.0371
      3  C4        10.3390   35.2210   60.7280 C.ar    0  <0>0        0.0030
      4  C5        10.1330   36.4770   61.3050 C.ar    0  <0>0        0.0004
      5  C6         9.4740   37.4520   60.6160 C.ar    0  <0>0        0.0096
      6  C7         9.0030   37.2030   59.3210 C.ar    0  <0>0        0.1136
      7  C9        11.0570   34.1680   61.4840 C.ar    0  <0>0        0.0001
      8  C14       10.4230   32.9620   61.7810 C.ar    0  <0>0       -0.0001
      9  C13       11.0980   31.9840   62.4800 C.ar    0  <0>0        0.0039
     10  C12       12.3990   32.2000   62.8970 C.ar    0  <0>0        0.0714
     11  C11       13.0330   33.3970   62.6110 C.ar    0  <0>0        0.0039
     12  C10       12.3690   34.3810   61.9070 C.ar    0  <0>0       -0.0001
     13  C15       13.1290   31.1300   63.6650 C.3     0  <0>0        0.4186
     14  F1        14.4140   31.5800   63.9880 F       0  <0>0       -0.1659
     15  F2        12.4290   30.8380   64.8410 F       0  <0>0       -0.1659
     16  F3        13.2240   29.9750   62.8810 F       0  <0>0       -0.1659
     17  O1         8.7430   35.6900   57.4860 O.3     0  <0>0       -0.4712
     18  C1         7.6180   34.8170   57.3690 C.3     0  <0>0        0.2525
     19  C8         8.2980   38.2570   58.5780 C.2     0  <0>0        0.3907
     20  O2         8.8330   38.7900   57.6150 O.co2   0  <0>0       -0.2404
     21  O3         7.1750   38.6010   58.9210 O.co2   0  <0>0       -0.2404
@<TRIPOS>BOND
     1    18    17    1
     2    17     1    1
     3    20    19   ar
     4    19    21   ar
     5    19     6    1
     6     1     6   ar
     7     1     2   ar
     8     6     5   ar
     9     2     3   ar
    10     5     4   ar
    11     3     4   ar
    12     3     7    1
    13     7     8   ar
    14     7    12   ar
    15     8     9   ar
    16    12    11   ar
    17     9    10   ar
    18    11    10   ar
    19    16    13    1
    20    10    13    1
    21    13    14    1
    22    13    15    1
