@<TRIPOS>MOLECULE
ZINC62231262_replica-1.pdb
 21 22 0 0 0
SMALL
GASTEIGER

@<TRIPOS>ATOM
      1  C11        8.6950   37.1500   58.8660 C.3     0  <0>0       -0.0361
      2  C8         9.5840   36.3990   59.8230 C.ar    0  <0>0       -0.0420
      3  C7         9.9540   36.9770   61.0220 C.ar    0  <0>0       -0.0066
      4  C6        10.7690   36.2870   61.9000 C.ar    0  <0>0       -0.0047
      5  C5        11.2140   35.0180   61.5790 C.ar    0  <0>0       -0.0225
      6  C10       10.8480   34.4420   60.3770 C.ar    0  <0>0       -0.0047
      7  C9        10.0300   35.1300   59.5010 C.ar    0  <0>0       -0.0066
      8  C3        12.1020   34.2660   62.5360 C.3     0  <0>0        0.0223
      9  C4        11.5630   32.8470   62.7240 C.3     0  <0>0        0.0047
     10  C2        13.5220   34.2010   61.9720 C.3     0  <0>0        0.0044
     11  C1        14.4060   33.3730   62.9070 C.3     0  <0>0        0.0003
     12  C12        8.3840   36.2650   57.6580 C.3     0  <0>0        0.0143
     13  C16        7.0140   35.6060   57.8460 C.3     0  <0>0        0.1403
     14  O1         6.6990   34.8270   56.6900 O.3     0  <0>0       -0.3538
     15  C15        6.6180   35.5820   55.4800 C.3     0  <0>0        0.1422
     16  C14        7.9720   36.2380   55.1980 C.3     0  <0>0        0.0321
     17  C13        8.3610   37.1210   56.3870 C.3     0  <0>0        0.0033
     18  N1         7.4430   37.5120   59.5430 N.4     0  <0>0        0.3862
     19  C17        7.1320   38.9230   59.2750 C.3     0  <0>0       -0.1051
     20  H24        6.6940   36.9310   59.1970 H       0  <0>0       -0.0840
     21  H28        7.5450   37.3740   60.5370 H       0  <0>0       -0.0840
@<TRIPOS>BOND
     1    16    15    1
     2    16    17    1
     3    15    14    1
     4    17    12    1
     5    14    13    1
     6    12    13    1
     7    12     1    1
     8     1    18    1
     9     1     2    1
    10    20    18    1
    11    19    18    1
    12     7     2   ar
    13     7     6   ar
    14    18    21    1
    15     2     3   ar
    16     6     5   ar
    17     3     4   ar
    18     5     4   ar
    19     5     8    1
    20    10     8    1
    21    10    11    1
    22     8     9    1
