@<TRIPOS>MOLECULE
ZINC41287898_replica-1.pdb
 29 32 0 0 0
SMALL
GASTEIGER

@<TRIPOS>ATOM
      1  C1         5.0180   32.8430   58.6400 C.3     0  <0>0        0.0375
      2  C2         4.7690   33.7800   57.4860 C.ar    0  <0>0        0.0474
      3  C3         3.7120   33.5490   56.6220 C.ar    0  <0>0        0.1477
      4  C4         3.4700   34.4070   55.5530 C.ar    0  <0>0        0.0376
      5  C5         4.2790   35.4890   55.3450 C.ar    0  <0>0        0.0095
      6  C6         5.3480   35.7350   56.2080 C.ar    0  <0>0        0.0764
      7  C7         5.5970   34.8790   57.2940 C.ar    0  <0>0        0.1474
      8  O1         6.6700   35.3210   57.9850 O.3     0  <0>0       -0.4504
      9  C8         7.1890   36.4480   57.4430 C.2     0  <0>0        0.1840
     10  C9         8.2650   37.1370   57.9000 C.2     0  <0>0        0.0408
     11  C16        6.3800   36.7860   56.2610 C.2     0  <0>0        0.2327
     12  O2         6.5240   37.7290   55.5030 O.2     0  <0>0       -0.2832
     13  O3         2.9030   32.4770   56.8190 O.3     0  <0>0       -0.4212
     14  C17        1.6230   32.7060   57.1720 C.2     0  <0>0        0.3465
     15  O4         0.7510   32.7090   56.3260 O.2     0  <0>0       -0.2445
     16  C18        1.2790   32.9530   58.5870 C.ar    0  <0>0        0.0866
     17  C23        0.9680   34.2450   59.0200 C.ar    0  <0>0        0.0639
     18  C22        0.6420   34.4670   60.3430 C.ar    0  <0>0        0.0116
     19 Cl          0.9870   35.5670   57.8940 Cl      0  <0>0       -0.0820
     20  C21        0.6330   33.4150   61.2410 C.ar    0  <0>0        0.0009
     21  C20        0.9450   32.1340   60.8210 C.ar    0  <0>0        0.0003
     22  C19        1.2680   31.8970   59.5010 C.ar    0  <0>0        0.0073
     23  C10        9.0660   36.5960   59.0070 C.ar    0  <0>0        0.0033
     24  C15        9.6790   35.3430   58.8840 C.ar    0  <0>0        0.0024
     25  C14       10.4340   34.8450   59.9240 C.ar    0  <0>0        0.0296
     26  C13       10.5760   35.5760   61.0940 C.ar    0  <0>0        0.1401
     27  C12        9.9660   36.8150   61.2250 C.ar    0  <0>0        0.0296
     28  F1        11.3130   35.0790   62.1110 F       0  <0>0       -0.2042
     29  C11        9.2140   37.3270   60.1910 C.ar    0  <0>0        0.0024
@<TRIPOS>BOND
     1     5     4   ar
     2     5     6   ar
     3    12    11    2
     4     4     3   ar
     5     6    11    1
     6     6     7   ar
     7    11     9    1
     8    15    14    2
     9     3    13    1
    10     3     2   ar
    11    13    14    1
    12    14    16    1
    13     7     2   ar
    14     7     8    1
    15     9    10    2
    16     9     8    1
    17     2     1    1
    18    19    17    1
    19    10    23    1
    20    16    17   ar
    21    16    22   ar
    22    24    23   ar
    23    24    25   ar
    24    23    29   ar
    25    17    18   ar
    26    22    21   ar
    27    25    26   ar
    28    29    27   ar
    29    18    20   ar
    30    21    20   ar
    31    26    27   ar
    32    26    28    1
