@<TRIPOS>MOLECULE
ZINC00640458_replica-1.pdb
 17 17 0 0 0
SMALL
GASTEIGER

@<TRIPOS>ATOM
      1  C9         9.4530   35.7070   58.4790 C.2     0  <0>0        0.0237
      2  C10        8.6730   36.8160   58.7170 C.2     0  <0>0        0.1366
      3  C11        7.9510   36.9330   59.9480 C.1     0  <0>0        0.1108
      4  N1         7.3780   37.0260   60.9250 N.1     0  <0>0       -0.1901
      5  C12        8.5840   37.8530   57.7330 C.1     0  <0>0        0.1108
      6  N2         8.5130   38.6760   56.9540 N.1     0  <0>0       -0.1901
      7  C4         9.6640   34.7190   59.5390 C.ar    0  <0>0        0.0363
      8  C3         8.8110   33.6060   59.6500 C.ar    0  <0>0        0.1446
      9  C8         9.0250   32.6750   60.6550 C.ar    0  <0>0        0.0689
     10  C7        10.0680   32.8430   61.5470 C.ar    0  <0>0        0.0164
     11 Br          7.8870   31.1720   60.8070 Br      0  <0>0       -0.0458
     12  C6        10.9090   33.9410   61.4450 C.ar    0  <0>0        0.0353
     13  C5        10.7140   34.8780   60.4530 C.ar    0  <0>0        0.0098
     14 Br         12.3310   34.1530   62.6740 Br      0  <0>0       -0.0490
     15  O1         7.7880   33.4410   58.7750 O.3     0  <0>0       -0.4750
     16  C2         8.0500   32.6600   57.6080 C.3     0  <0>0        0.2055
     17  C1         7.4970   33.3790   56.3760 C.3     0  <0>0        0.0512
@<TRIPOS>BOND
     1    17    16    1
     2     6     5    3
     3    16    15    1
     4     5     2    1
     5     1     2    2
     6     1     7    1
     7     2     3    1
     8    15     8    1
     9     7     8   ar
    10     7    13   ar
    11     8     9   ar
    12     3     4    3
    13    13    12   ar
    14     9    11    1
    15     9    10   ar
    16    12    10   ar
    17    12    14    1
