@<TRIPOS>MOLECULE
ZINC20175390_replica-1.pdb
 23 24 0 0 0
SMALL
GASTEIGER

@<TRIPOS>ATOM
      1  C9        -1.6290   28.4050   56.6060 C.3     0  <0>0        0.1699
      2  C10       -2.4090   27.7320   57.6580 C.1     0  <0>0        0.0930
      3  N2        -3.0100   27.2120   58.4700 N.1     0  <0>0       -0.1941
      4  N1        -0.6020   27.4880   56.0960 N.3     0  <0>0       -0.2794
      5  H11       -1.0840   26.5450   55.8010 H       0  <0>0        0.1248
      6  C8         0.0910   28.0660   54.9360 C.3     0  <0>0        0.0963
      7  C7        -0.3440   27.3520   53.6830 C.ar    0  <0>0       -0.0103
      8  C2        -1.1500   27.9970   52.7640 C.ar    0  <0>0       -0.0245
      9  C1        -1.5930   29.4150   53.0150 C.3     0  <0>0        0.0307
     10  C3        -1.5490   27.3410   51.6140 C.ar    0  <0>0       -0.0045
     11  C4        -1.1430   26.0410   51.3840 C.ar    0  <0>0       -0.0003
     12  C5        -0.3380   25.3950   52.3030 C.ar    0  <0>0       -0.0003
     13  C6         0.0660   26.0520   53.4490 C.ar    0  <0>0       -0.0032
     14  C11       -0.9680   29.6320   57.1780 C.ar    0  <0>0        0.0063
     15  C16       -1.0740   30.8450   56.5220 C.ar    0  <0>0       -0.0023
     16  C15       -0.4680   31.9700   57.0470 C.ar    0  <0>0       -0.0045
     17  C14        0.2450   31.8850   58.2280 C.ar    0  <0>0       -0.0228
     18  C13        0.3510   30.6720   58.8840 C.ar    0  <0>0       -0.0045
     19  C12       -0.2600   29.5470   58.3630 C.ar    0  <0>0       -0.0023
     20  C17        0.9060   33.1110   58.8010 C.3     0  <0>0        0.0189
     21  C18        0.4120   34.3520   58.0530 C.3     0  <0>0        0.0044
     22  C19        0.5530   33.2360   60.2840 C.3     0  <0>0        0.0044
     23  C20        2.4230   32.9920   58.6460 C.3     0  <0>0        0.0044
@<TRIPOS>BOND
     1    11    10   ar
     2    11    12   ar
     3    10     8   ar
     4    12    13   ar
     5     8     9    1
     6     8     7   ar
     7    13     7   ar
     8     7     6    1
     9     6     4    1
    10     5     4    1
    11     4     1    1
    12    15    16   ar
    13    15    14   ar
    14     1    14    1
    15     1     2    1
    16    16    17   ar
    17    14    19   ar
    18     2     3    3
    19    21    20    1
    20    17    20    1
    21    17    18   ar
    22    19    18   ar
    23    23    20    1
    24    20    22    1
