@<TRIPOS>MOLECULE
ZINC67589665_replica-1.pdb
 20 20 0 0 0
SMALL
GASTEIGER

@<TRIPOS>ATOM
      1  N1        10.5290   35.1170   61.1840 N.am    0  <0>0       -0.2904
      2  C8        10.5220   33.8730   61.7020 C.2     0  <0>0        0.3040
      3  O1         9.6240   33.1030   61.4210 O.2     0  <0>0       -0.2526
      4  N2        11.5100   33.4830   62.5310 N.am    0  <0>0       -0.2617
      5  C9        12.5370   34.4360   62.9720 C.3     0  <0>0        0.0951
      6  C10       13.9180   33.8510   62.6630 C.3     0  <0>0        0.0241
      7  C11       14.0340   32.4630   63.2990 C.3     0  <0>0        0.0331
      8  C12       12.9720   31.5360   62.7020 C.3     0  <0>0        0.1351
      9  C13       11.5760   32.0980   63.0160 C.3     0  <0>0        0.1243
     10  H17       11.2030   35.7560   61.4650 H       0  <0>0        0.1509
     11  C6         9.5190   35.5060   60.1970 C.3     0  <0>0        0.0731
     12  C7         9.9530   35.0320   58.8080 C.3     0  <0>0        0.0213
     13  C5         9.3690   37.0280   60.1920 C.3     0  <0>0        0.0196
     14  C4         7.8880   37.3960   60.3090 C.3     0  <0>0        0.0017
     15  C3         7.5500   38.4840   59.2900 C.3     0  <0>0        0.0001
     16  C2         7.5600   37.8850   57.8820 C.3     0  <0>0        0.0000
     17  C1         8.5640   38.6440   57.0110 C.3     0  <0>0        0.0000
     18  O2        13.1010   30.2340   63.2740 O.3     0  <0>0       -0.3545
     19  C14       11.9750   29.8280   64.0550 C.3     0  <0>0        0.1422
     20  C15       12.4630   29.1620   65.3440 C.3     0  <0>0        0.0346
@<TRIPOS>BOND
     1    17    16    1
     2    16    15    1
     3    12    11    1
     4    15    14    1
     5    13    11    1
     6    13    14    1
     7    11     1    1
     8     1    10    1
     9     1     2   am
    10     3     2    2
    11     2     4   am
    12     4     5    1
    13     4     9    1
    14     6     5    1
    15     6     7    1
    16     8     9    1
    17     8    18    1
    18     8     7    1
    19    18    19    1
    20    19    20    1
