@<TRIPOS>MOLECULE
ZINC45939500_replica-1.pdb
 33 35 0 0 0
SMALL
GASTEIGER

@<TRIPOS>ATOM
      1  N1         6.2360   33.1500   58.5440 N.pl3   0  <0>0       -0.2438
      2  C8         5.5550   32.9820   59.7160 C.2     0  <0>0        0.3851
      3  N2         4.8320   34.0130   60.2380 N.pl3   0  <0>0       -0.2593
      4  N4         5.6000   31.8180   60.3470 N.am    0  <0>0        0.0006
      5  C15        6.4010   30.8430   59.8980 C.2     0  <0>0        0.3418
      6  O1         7.1270   31.0440   58.9410 O.2     0  <0>0       -0.2483
      7  H7         4.3660   33.9020   61.0810 H       0  <0>0        0.2589
      8  H14        6.0860   32.5390   57.8060 H       0  <0>0        0.2647
      9  C6         7.1490   34.2010   58.4090 C.ar    0  <0>0        0.1160
     10  C5         7.0180   35.1070   57.3650 C.ar    0  <0>0        0.0291
     11  C4         7.9220   36.1430   57.2350 C.ar    0  <0>0       -0.0194
     12  C3         8.9550   36.2800   58.1440 C.ar    0  <0>0       -0.0083
     13  C26        7.7800   37.1270   56.1030 C.3     0  <0>0        0.0311
     14  C2         9.0880   35.3800   59.1850 C.ar    0  <0>0       -0.0194
     15  C1        10.2160   35.5320   60.1720 C.3     0  <0>0        0.0311
     16  C7         8.1910   34.3380   59.3170 C.ar    0  <0>0        0.0291
     17  C9         4.7570   35.2910   59.5240 C.3     0  <0>0        0.2009
     18  C10        3.4450   35.3810   58.7890 C.ar    0  <0>0        0.0201
     19  C14        3.3800   35.9320   57.5180 C.ar    0  <0>0        0.0197
     20  C13        2.1600   35.9920   56.8710 C.ar    0  <0>0        0.0987
     21  N3         1.0650   35.5440   57.4540 N.ar    0  <0>0       -0.2423
     22  C12        1.0880   35.0200   58.6640 C.ar    0  <0>0        0.0987
     23  C11        2.2730   34.9210   59.3690 C.ar    0  <0>0        0.0197
     24  C16        6.4040   29.5210   60.5660 C.ar    0  <0>0        0.0727
     25  C21        7.0870   29.3470   61.7700 C.ar    0  <0>0        0.0058
     26  C20        7.0810   28.1140   62.3900 C.ar    0  <0>0       -0.0041
     27  C19        6.4110   27.0500   61.8140 C.ar    0  <0>0       -0.0228
     28  C18        5.7390   27.2140   60.6170 C.ar    0  <0>0       -0.0041
     29  C17        5.7310   28.4430   59.9900 C.ar    0  <0>0        0.0058
     30  C22        6.4150   25.7050   62.4940 C.3     0  <0>0        0.0189
     31  C23        6.0390   25.8770   63.9670 C.3     0  <0>0        0.0044
     32  C24        5.4000   24.7860   61.8130 C.3     0  <0>0        0.0044
     33  C25        7.8110   25.0860   62.3940 C.3     0  <0>0        0.0044
@<TRIPOS>BOND
     1    13    11    1
     2    20    21   ar
     3    20    19   ar
     4    11    10   ar
     5    11    12   ar
     6    10     9   ar
     7    21    22   ar
     8    19    18   ar
     9     8     1    1
    10    12    14   ar
    11     9     1    1
    12     9    16   ar
    13     1     2    1
    14    22    23   ar
    15    18    23   ar
    16    18    17    1
    17     6     5    2
    18    14    16   ar
    19    14    15    1
    20    17     3    1
    21     2     3    1
    22     2     4    2
    23     5     4    1
    24     5    24    1
    25    29    24   ar
    26    29    28   ar
    27     3     7    1
    28    24    25   ar
    29    28    27   ar
    30    25    26   ar
    31    32    30    1
    32    27    26   ar
    33    27    30    1
    34    33    30    1
    35    30    31    1
