@<TRIPOS>MOLECULE
ZINC36145787_replica-1.pdb
 33 36 0 0 0
SMALL
GASTEIGER

@<TRIPOS>ATOM
      1  N2         7.7130   37.2780   59.6190 N.4     0  <0>0        0.3938
      2  H31        7.9160   36.4220   59.1240 H       0  <0>0       -0.0790
      3  C11        8.6160   37.4020   60.7710 C.3     0  <0>0       -0.0291
      4  C9         9.9430   36.7090   60.4570 C.3     0  <0>0        0.1819
      5  O1         9.7300   35.5230   59.6640 O.2     0  <0>0       -0.3833
      6  N1        10.6660   34.5520   60.0880 N.2     0  <0>0       -0.0876
      7  C8        11.1790   34.8190   61.2430 C.2     0  <0>0        0.1003
      8  C10       10.5730   36.1170   61.7420 C.3     0  <0>0        0.0932
      9  C7        12.1750   33.9970   61.9570 C.ar    0  <0>0        0.0129
     10  C2        11.7990   32.7840   62.5350 C.ar    0  <0>0       -0.0206
     11  C1        10.3730   32.3100   62.4350 C.3     0  <0>0        0.0311
     12  C3        12.7380   32.0180   63.1960 C.ar    0  <0>0       -0.0042
     13  C4        14.0480   32.4520   63.2900 C.ar    0  <0>0       -0.0003
     14  C5        14.4270   33.6560   62.7220 C.ar    0  <0>0        0.0000
     15  C6        13.4980   34.4320   62.0600 C.ar    0  <0>0        0.0010
     16  C12        6.3210   37.2560   60.0860 C.3     0  <0>0       -0.0496
     17  C13        5.6450   36.0020   59.5930 C.ar    0  <0>0       -0.0432
     18  C18        4.4490   36.0870   58.9040 C.ar    0  <0>0       -0.0063
     19  C17        3.8310   34.9380   58.4480 C.ar    0  <0>0       -0.0004
     20  C16        4.4050   33.7030   58.6880 C.ar    0  <0>0       -0.0000
     21  C15        5.5980   33.6180   59.3820 C.ar    0  <0>0       -0.0004
     22  C14        6.2180   34.7670   59.8340 C.ar    0  <0>0       -0.0063
     23  C19        7.9090   38.4210   58.7170 C.3     0  <0>0       -0.0465
     24  C20        8.3840   37.9190   57.3520 C.3     0  <0>0        0.0943
     25  C21        7.1710   37.6300   56.4640 C.3     0  <0>0        0.0534
     26  C22        7.0610   36.1460   56.2320 C.ar    0  <0>0       -0.0198
     27  C27        8.0380   35.2960   56.7150 C.ar    0  <0>0       -0.0042
     28  C26        7.9340   33.9330   56.5040 C.ar    0  <0>0       -0.0003
     29  C25        6.8580   33.4220   55.8030 C.ar    0  <0>0       -0.0000
     30  C24        5.8830   34.2730   55.3150 C.ar    0  <0>0       -0.0003
     31  C23        5.9840   35.6350   55.5290 C.ar    0  <0>0       -0.0042
     32  O2         9.1980   38.9170   56.7340 O.3     0  <0>0       -0.3863
     33  H30       10.1330   38.8700   56.9780 H       0  <0>0        0.2103
@<TRIPOS>BOND
     1    30    31   ar
     2    30    29   ar
     3    31    26   ar
     4    29    28   ar
     5    26    25    1
     6    26    27   ar
     7    25    24    1
     8    28    27   ar
     9    32    33    1
    10    32    24    1
    11    24    23    1
    12    19    20   ar
    13    19    18   ar
    14    20    21   ar
    15    23     1    1
    16    18    17   ar
    17     2     1    1
    18    21    22   ar
    19    17    22   ar
    20    17    16    1
    21     1    16    1
    22     1     3    1
    23     5     6    1
    24     5     4    1
    25     6     7    2
    26     4     3    1
    27     4     8    1
    28     7     8    1
    29     7     9    1
    30     9    15   ar
    31     9    10   ar
    32    15    14   ar
    33    11    10    1
    34    10    12   ar
    35    14    13   ar
    36    12    13   ar
