@<TRIPOS>MOLECULE
ZINC44676112_replica-1.pdb
 29 32 0 0 0
SMALL
GASTEIGER

@<TRIPOS>ATOM
      1  C4         1.3900   32.2050   56.0380 C.2     0  <0>0        0.0123
      2  C5         1.8510   33.3160   56.5550 C.2     0  <0>0       -0.0455
      3  C6         1.0390   34.4360   57.2000 C.3     0  <0>0        0.0218
      4  C7         2.0620   35.4720   57.7410 C.3     0  <0>0        0.0046
      5  C8         3.3300   34.6270   57.9140 C.3     0  <0>0        0.0041
      6  C9         3.2860   33.7470   56.6400 C.3     0  <0>0        0.0150
      7  C10        4.3190   32.6510   56.8170 C.3     0  <0>0        0.0037
      8  C11        5.6960   33.3310   56.8650 C.3     0  <0>0        0.0006
      9  C12        5.7760   34.3670   57.9830 C.3     0  <0>0        0.0038
     10  C13        4.6390   35.3990   57.9090 C.3     0  <0>0        0.0049
     11  C14        4.7090   36.2920   59.1520 C.3     0  <0>0        0.0254
     12  C15        6.0700   36.9200   59.2320 C.2     0  <0>0       -0.0345
     13  C16        7.1320   36.3790   58.7110 C.2     0  <0>0       -0.0455
     14  C17        7.1260   35.0650   57.9390 C.3     0  <0>0        0.0151
     15  C18        8.2090   34.1500   58.5180 C.3     0  <0>0        0.0074
     16  C19        9.5570   34.8720   58.4810 C.3     0  <0>0        0.0443
     17  C20        9.4990   36.1170   59.3670 C.3     0  <0>0        0.1728
     18  C21        8.4580   37.1060   58.8640 C.3     0  <0>0        0.0653
     19  C24        7.4800   35.3280   56.4740 C.3     0  <0>0        0.0040
     20  C25        3.6430   34.5960   55.4180 C.3     0  <0>0        0.0040
     21  C3        -0.0920   31.9320   56.0360 C.3     0  <0>0        0.2342
     22  O2        -0.4780   31.4020   54.7660 O.3     0  <0>0       -0.4435
     23  C2        -1.6600   30.7700   54.7030 C.2     0  <0>0        0.3179
     24  C1        -1.9340   29.7940   53.5880 C.3     0  <0>0        0.1212
     25  O1        -2.5050   30.9850   55.5400 O.2     0  <0>0       -0.2501
     26  O3         9.1190   35.7410   60.6930 O.3     0  <0>0       -0.4519
     27  C22        9.6030   36.4870   61.6990 C.2     0  <0>0        0.3174
     28  O4         8.8610   37.1970   62.3360 O.2     0  <0>0       -0.2501
     29  C23       11.0710   36.4360   62.0350 C.3     0  <0>0        0.1212
@<TRIPOS>BOND
     1    24    23    1
     2    23    22    1
     3    23    25    2
     4    22    21    1
     5    20     6    1
     6    21     1    1
     7     1     2    2
     8    19    14    1
     9     2     6    1
    10     2     3    1
    11     6     7    1
    12     6     5    1
    13     7     8    1
    14     8     9    1
    15     3     4    1
    16     4     5    1
    17    10     5    1
    18    10     9    1
    19    10    11    1
    20    14     9    1
    21    14    15    1
    22    14    13    1
    23    16    15    1
    24    16    17    1
    25    13    18    1
    26    13    12    2
    27    18    17    1
    28    11    12    1
    29    17    26    1
    30    26    27    1
    31    27    29    1
    32    27    28    2
