@<TRIPOS>MOLECULE
ZINC05253221_replica-1.pdb
 29 33 0 0 0
SMALL
GASTEIGER

@<TRIPOS>ATOM
      1  C8         9.8420   34.2910   60.8280 C.2     0  <0>0        0.0783
      2  N1         9.0910   33.6060   60.0290 N.2     0  <0>0       -0.1831
      3  N2         8.1440   34.3700   59.3730 N.pl3   0  <0>0       -0.1912
      4  C9         8.1310   35.7280   59.9590 C.3     0  <0>0        0.1262
      5  C10        9.4050   35.7410   60.8150 C.3     0  <0>0        0.0735
      6  C11        8.2150   36.6930   58.8040 C.ar    0  <0>0        0.0318
      7  C12        8.5480   38.0110   59.0500 C.ar    0  <0>0        0.0004
      8  C13        8.6160   38.9190   58.0100 C.ar    0  <0>0       -0.0001
      9  C14        8.3490   38.5030   56.7190 C.ar    0  <0>0        0.0031
     10  C15        8.0220   37.1880   56.4700 C.ar    0  <0>0        0.0367
     11  C16        7.9570   36.2620   57.5120 C.ar    0  <0>0        0.1385
     12  O2         7.6550   34.9800   57.1880 O.3     0  <0>0       -0.4553
     13  C17        7.3030   34.0440   58.2130 C.3     0  <0>0        0.2834
     14  C6        10.9510   33.7430   61.6320 C.ar    0  <0>0        0.0181
     15  C5        12.1580   34.4410   61.7280 C.ar    0  <0>0        0.0014
     16  C4        13.1930   33.9250   62.4810 C.ar    0  <0>0        0.0032
     17  C3        13.0420   32.7170   63.1370 C.ar    0  <0>0        0.0369
     18  C2        11.8450   32.0200   63.0510 C.ar    0  <0>0        0.1388
     19  C7        10.7990   32.5270   62.2990 C.ar    0  <0>0        0.0381
     20  O1        11.7010   30.8350   63.7020 O.3     0  <0>0       -0.4714
     21  C1        12.8390   29.9710   63.7340 C.3     0  <0>0        0.2525
     22  C18        5.8470   34.1910   58.5720 C.ar    0  <0>0        0.0387
     23  C23        5.3510   33.5770   59.7080 C.ar    0  <0>0        0.0015
     24  C22        4.0180   33.7090   60.0410 C.ar    0  <0>0        0.0060
     25  C21        3.1730   34.4600   59.2330 C.ar    0  <0>0        0.0252
     26  C20        3.6740   35.0760   58.0920 C.ar    0  <0>0        0.0060
     27  C19        5.0100   34.9430   57.7680 C.ar    0  <0>0        0.0015
     28  S1         1.4700   34.6330   59.6540 S.3     0  <0>0       -0.1127
     29  C24        0.6470   34.8890   58.0580 C.3     0  <0>0        0.0742
@<TRIPOS>BOND
     1    10     9   ar
     2    10    11   ar
     3     9     8   ar
     4    12    11    1
     5    12    13    1
     6    11     6   ar
     7    27    26   ar
     8    27    22   ar
     9     8     7   ar
    10    29    28    1
    11    26    25   ar
    12    13    22    1
    13    13     3    1
    14    22    23   ar
    15     6     7   ar
    16     6     4    1
    17    25    28    1
    18    25    24   ar
    19     3     4    1
    20     3     2    1
    21    23    24   ar
    22     4     5    1
    23     2     1    2
    24     5     1    1
    25     1    14    1
    26    14    15   ar
    27    14    19   ar
    28    15    16   ar
    29    19    18   ar
    30    16    17   ar
    31    18    17   ar
    32    18    20    1
    33    20    21    1
