@<TRIPOS>MOLECULE
ZINC27744526_replica-1.pdb
 32 35 0 0 0
SMALL
GASTEIGER

@<TRIPOS>ATOM
      1  C8        -1.1650   30.1170   55.1010 C.3     0  <0>0        0.0656
      2  C5        -1.4330   29.0520   56.1330 C.ar    0  <0>0       -0.0165
      3  C4        -2.7320   28.7710   56.5150 C.ar    0  <0>0       -0.0008
      4  C3        -2.9800   27.7950   57.4610 C.ar    0  <0>0        0.0366
      5  C2        -1.9240   27.0960   58.0280 C.ar    0  <0>0        0.1387
      6  C7        -0.6210   27.3800   57.6440 C.ar    0  <0>0        0.0366
      7  C6        -0.3790   28.3530   56.6930 C.ar    0  <0>0       -0.0008
      8  O1        -2.1650   26.1350   58.9580 O.3     0  <0>0       -0.4714
      9  C1        -3.0750   26.4630   60.0100 C.3     0  <0>0        0.2525
     10  C9         0.3420   30.3650   55.0030 C.3     0  <0>0        0.0984
     11  N1         0.6340   31.7490   55.3840 N.am    0  <0>0       -0.3001
     12  C10        1.1700   32.0170   56.5910 C.2     0  <0>0        0.2488
     13  O2         1.4110   31.1100   57.3640 O.2     0  <0>0       -0.2700
     14  H12        0.4160   32.5690   54.6850 H       0  <0>0        0.1498
     15  C11        1.4650   33.4110   56.9740 C.ar    0  <0>0        0.0872
     16  C16        2.4830   34.1200   56.3250 C.ar    0  <0>0        0.1430
     17  C15        2.7520   35.4310   56.6940 C.ar    0  <0>0        0.0371
     18  C14        2.0180   36.0320   57.6970 C.ar    0  <0>0        0.0031
     19  C13        1.0090   35.3320   58.3420 C.ar    0  <0>0        0.0003
     20  C12        0.7260   34.0320   57.9850 C.ar    0  <0>0        0.0076
     21  O3         3.2040   33.5290   55.3390 O.3     0  <0>0       -0.4713
     22  C17        4.2300   34.3130   54.7260 C.3     0  <0>0        0.2525
     23  C18       -1.6880   29.6620   53.7630 C.ar    0  <0>0        0.0016
     24  C21       -1.3330   28.4260   53.0620 C.ar    0  <0>0        0.0134
     25  C20       -2.0650   28.4370   51.8600 C.ar    0  <0>0        0.0563
     26  C22       -0.4840   27.3570   53.3520 C.ar    0  <0>0        0.0012
     27  N2        -2.8060   29.5970   51.8460 N.ar    0  <0>0       -0.3522
     28  C25       -1.9330   27.3740   50.9730 C.ar    0  <0>0        0.0170
     29  C19       -2.5720   30.3120   52.9890 C.ar    0  <0>0        0.0684
     30  H2        -3.5030   29.9850   51.0880 H       0  <0>0        0.1660
     31  C24       -1.0890   26.3280   51.2780 C.ar    0  <0>0        0.0015
     32  C23       -0.3690   26.3230   52.4650 C.ar    0  <0>0        0.0001
@<TRIPOS>BOND
     1    28    31   ar
     2    28    25   ar
     3    30    27    1
     4    31    32   ar
     5    27    25   ar
     6    27    29   ar
     7    25    24   ar
     8    32    26   ar
     9    29    23   ar
    10    24    26   ar
    11    24    23   ar
    12    23     1    1
    13    14    11    1
    14    22    21    1
    15    10     1    1
    16    10    11    1
    17     1     2    1
    18    21    16    1
    19    11    12   am
    20     2     3   ar
    21     2     7   ar
    22    16    17   ar
    23    16    15   ar
    24     3     4   ar
    25    12    15    1
    26    12    13    2
    27     7     6   ar
    28    17    18   ar
    29    15    20   ar
    30     4     5   ar
    31     6     5   ar
    32    18    19   ar
    33    20    19   ar
    34     5     8    1
    35     8     9    1
