@<TRIPOS>MOLECULE
ZINC13456848_replica-1.pdb
 26 27 0 0 0
SMALL
GASTEIGER

@<TRIPOS>ATOM
      1  N1         7.4430   35.9650   58.6930 N.am    0  <0>0       -0.2992
      2  C11        6.9470   35.3590   57.5960 C.2     0  <0>0        0.2672
      3  O1         7.5610   35.3980   56.5520 O.2     0  <0>0       -0.2711
      4  H13        6.9510   35.9330   59.5280 H       0  <0>0        0.1498
      5  C4         8.7240   36.6720   58.6240 C.3     0  <0>0        0.0941
      6  C2         8.4840   38.1780   58.7480 C.3     0  <0>0        0.0222
      7  C1         8.5680   38.8240   57.3640 C.3     0  <0>0        0.0020
      8  C3         7.0970   38.4260   59.3440 C.3     0  <0>0        0.0020
      9  C5         9.6140   36.2100   59.7480 C.ar    0  <0>0       -0.0044
     10  C10       10.2250   34.9720   59.6830 C.ar    0  <0>0       -0.0004
     11  C9        11.0410   34.5480   60.7140 C.ar    0  <0>0        0.0294
     12  C8        11.2480   35.3640   61.8140 C.ar    0  <0>0        0.1401
     13  C7        10.6360   36.6050   61.8770 C.ar    0  <0>0        0.0294
     14  F1        12.0470   34.9520   62.8210 F       0  <0>0       -0.2042
     15  C6         9.8240   37.0290   60.8430 C.ar    0  <0>0       -0.0004
     16  C12        5.6290   34.6320   57.6680 C.3     0  <0>0        0.2893
     17  O2         4.5860   35.5630   57.9640 O.3     0  <0>0       -0.4656
     18  C13        3.5520   35.1120   58.7180 C.ar    0  <0>0        0.1393
     19  C18        3.7680   34.1210   59.6680 C.ar    0  <0>0        0.0371
     20  C17        2.7220   33.6600   60.4350 C.ar    0  <0>0        0.0097
     21  C16        1.4410   34.1910   60.2580 C.ar    0  <0>0        0.0800
     22  C15        1.2280   35.1890   59.3010 C.ar    0  <0>0        0.0097
     23  C14        2.2820   35.6480   58.5420 C.ar    0  <0>0        0.0371
     24  C19        0.3170   33.7010   61.0770 C.2     0  <0>0        0.3878
     25  O3        -0.4660   34.4890   61.5680 O.co2   0  <0>0       -0.2406
     26  O4         0.1590   32.3780   61.2810 O.co2   0  <0>0       -0.2406
@<TRIPOS>BOND
     1     3     2    2
     2     7     6    1
     3     2    16    1
     4     2     1   am
     5    16    17    1
     6    17    18    1
     7    23    18   ar
     8    23    22   ar
     9     5     1    1
    10     5     6    1
    11     5     9    1
    12     1     4    1
    13    18    19   ar
    14     6     8    1
    15    22    21   ar
    16    19    20   ar
    17    10     9   ar
    18    10    11   ar
    19     9    15   ar
    20    21    20   ar
    21    21    24    1
    22    11    12   ar
    23    15    13   ar
    24    24    26   ar
    25    24    25   ar
    26    12    13   ar
    27    12    14    1
