@<TRIPOS>MOLECULE
ZINC20420220_replica-1.pdb
 20 20 0 0 0
SMALL
GASTEIGER

@<TRIPOS>ATOM
      1  N2        -0.5630   29.6750   55.0850 N.pl3   0  <0>0       -0.3263
      2  H11        0.1510   30.4930   54.9100 H       0  <0>0        0.1472
      3  C2        -1.5230   29.7640   56.1880 C.3     0  <0>0        0.1467
      4  C1        -2.6800   30.6810   55.7840 C.3     0  <0>0        0.0311
      5  C3        -0.8370   30.3250   57.4070 C.2     0  <0>0        0.2405
      6  O1        -0.8690   29.7160   58.4550 O.2     0  <0>0       -0.2733
      7  N1        -0.1920   31.5060   57.3320 N.am    0  <0>0       -0.2991
      8  H5        -0.1630   32.0580   56.3810 H       0  <0>0        0.1498
      9  C4         0.4710   32.0540   58.5190 C.3     0  <0>0        0.1161
     10  C5         0.2950   33.5500   58.5450 C.2     0  <0>0       -0.0049
     11  C6         0.5890   34.2260   59.6280 C.2     0  <0>0       -0.0032
     12  C7        -0.5540   28.5490   54.2550 C.ar    0  <0>0        0.0565
     13  C12        0.0830   27.3850   54.6670 C.ar    0  <0>0        0.0716
     14  C11        0.0850   26.2730   53.8460 C.ar    0  <0>0        0.0249
     15 Cl          0.8690   27.3260   56.2130 Cl      0  <0>0       -0.0809
     16  C10       -0.5360   26.3210   52.6120 C.ar    0  <0>0        0.0691
     17  C9        -1.1670   27.4820   52.1960 C.ar    0  <0>0        0.0695
     18 Cl         -0.5260   24.9250   51.5800 Cl      0  <0>0       -0.0813
     19  C8        -1.1770   28.5960   53.0150 C.ar    0  <0>0        0.0274
     20 Cl         -1.9460   27.5390   50.6450 Cl      0  <0>0       -0.0813
@<TRIPOS>BOND
     1    20    17    1
     2    18    16    1
     3    17    16   ar
     4    17    19   ar
     5    16    14   ar
     6    19    12   ar
     7    14    13   ar
     8    12    13   ar
     9    12     1    1
    10    13    15    1
    11     2     1    1
    12     1     3    1
    13     4     3    1
    14     3     5    1
    15     8     7    1
    16     7     5   am
    17     7     9    1
    18     5     6    2
    19     9    10    1
    20    10    11    2
