@<TRIPOS>MOLECULE
ZINC06057591_replica-1.pdb
 29 31 0 0 0
SMALL
GASTEIGER

@<TRIPOS>ATOM
      1  S2         2.7820   32.0590   57.2020 S.3     0  <0>0       -0.0768
      2  C9         4.1370   33.0040   56.5900 C.ar    0  <0>0        0.1611
      3  N3         4.2330   33.7050   55.4760 N.ar    0  <0>0       -0.1331
      4  N2         5.3970   34.3820   55.1910 N.ar    0  <0>0       -0.1249
      5  C8         6.4140   34.3180   56.0280 C.ar    0  <0>0        0.1865
      6  S1         5.7490   33.2710   57.3120 S.2     0  <0>0       -0.0242
      7  N1         7.6680   34.9120   55.9370 N.pl3   0  <0>0       -0.2913
      8  H9         8.3610   34.5030   55.3960 H       0  <0>0        0.1541
      9  C6         7.9310   36.0980   56.6270 C.ar    0  <0>0        0.0494
     10  C5         7.7510   37.3240   55.9990 C.ar    0  <0>0        0.0146
     11  C4         8.0120   38.4940   56.6850 C.ar    0  <0>0        0.0009
     12  C3         8.4510   38.4460   57.9950 C.ar    0  <0>0       -0.0042
     13  C2         8.6350   37.2280   58.6220 C.ar    0  <0>0       -0.0206
     14  C1         9.1180   37.1810   60.0490 C.3     0  <0>0        0.0311
     15  C7         8.3720   36.0540   57.9440 C.ar    0  <0>0        0.0104
     16  C10        1.3860   32.5710   56.1620 C.3     0  <0>0        0.1488
     17  C11        0.4500   31.4050   55.9690 C.2     0  <0>0        0.2339
     18  O1        -0.6030   31.3670   56.5680 O.2     0  <0>0       -0.2741
     19  N4         0.7860   30.4040   55.1310 N.am    0  <0>0       -0.3033
     20  H12        1.6280   30.4340   54.6520 H       0  <0>0        0.1495
     21  C12       -0.1230   29.2700   54.9440 C.3     0  <0>0        0.0937
     22  C13       -0.8520   29.4160   53.6060 C.3     0  <0>0        0.0419
     23  C14       -2.2800   29.9090   53.8550 C.3     0  <0>0        0.0064
     24  C15       -0.8960   28.0810   52.9100 C.ar    0  <0>0       -0.0208
     25  C20       -0.2290   26.9970   53.4500 C.ar    0  <0>0       -0.0042
     26  C19       -0.2680   25.7720   52.8110 C.ar    0  <0>0       -0.0003
     27  C18       -0.9760   25.6300   51.6320 C.ar    0  <0>0       -0.0000
     28  C17       -1.6450   26.7140   51.0930 C.ar    0  <0>0       -0.0003
     29  C16       -1.6080   27.9370   51.7340 C.ar    0  <0>0       -0.0042
@<TRIPOS>BOND
     1    28    27   ar
     2    28    29   ar
     3    27    26   ar
     4    29    24   ar
     5    26    25   ar
     6    24    25   ar
     7    24    22    1
     8    22    23    1
     9    22    21    1
    10    20    19    1
    11    21    19    1
    12    19    17   am
    13     4     3   ar
    14     4     5   ar
    15     8     7    1
    16     3     2   ar
    17     7     5    1
    18     7     9    1
    19    17    16    1
    20    17    18    2
    21    10     9   ar
    22    10    11   ar
    23     5     6   ar
    24    16     1    1
    25     2     1    1
    26     2     6   ar
    27     9    15   ar
    28    11    12   ar
    29    15    13   ar
    30    12    13   ar
    31    13    14    1
