@<TRIPOS>MOLECULE
ZINC36953691_replica-1.pdb
 22 24 0 0 0
SMALL
GASTEIGER

@<TRIPOS>ATOM
      1  N1         0.8150   29.4650   56.8870 N.pl3   0  <0>0       -0.3340
      2  H14        1.5370   28.8180   56.8580 H       0  <0>0        0.1468
      3  C8         0.9050   30.5770   57.7280 C.ar    0  <0>0        0.0446
      4  C7         1.7640   30.5550   58.8200 C.ar    0  <0>0        0.0140
      5  C6         1.8510   31.6550   59.6490 C.ar    0  <0>0       -0.0030
      6  C5         1.0850   32.7780   59.3950 C.ar    0  <0>0       -0.0224
      7  C10        0.2240   32.8010   58.3130 C.ar    0  <0>0       -0.0030
      8  C9         0.1360   31.7050   57.4750 C.ar    0  <0>0        0.0140
      9  C3         1.1830   33.9770   60.3020 C.3     0  <0>0        0.0223
     10  C4         1.2580   35.2510   59.4580 C.3     0  <0>0        0.0047
     11  C2        -0.0500   34.0360   61.2060 C.3     0  <0>0        0.0044
     12  C1         0.1950   33.1950   62.4600 C.3     0  <0>0        0.0003
     13  C11       -0.3710   29.2770   56.0470 C.3     0  <0>0        0.0697
     14  C14       -0.7090   27.8010   55.7820 C.3     0  <0>0        0.0239
     15  C13        0.2120   27.8920   54.5540 C.3     0  <0>0        0.0256
     16  C12       -0.0840   29.4010   54.5410 C.3     0  <0>0        0.0239
     17  C15       -0.3180   27.1630   53.3460 C.ar    0  <0>0       -0.0224
     18  C20       -1.0660   27.8410   52.4020 C.ar    0  <0>0       -0.0043
     19  C19       -1.5490   27.1730   51.2920 C.ar    0  <0>0       -0.0003
     20  C18       -1.2930   25.8240   51.1310 C.ar    0  <0>0       -0.0000
     21  C17       -0.5510   25.1450   52.0790 C.ar    0  <0>0       -0.0003
     22  C16       -0.0630   25.8130   53.1860 C.ar    0  <0>0       -0.0043
@<TRIPOS>BOND
     1    20    19   ar
     2    20    21   ar
     3    19    18   ar
     4    21    22   ar
     5    18    17   ar
     6    22    17   ar
     7    17    15    1
     8    16    15    1
     9    16    13    1
    10    15    14    1
    11    14    13    1
    12    13     1    1
    13     2     1    1
    14     1     3    1
    15     8     3   ar
    16     8     7   ar
    17     3     4   ar
    18     7     6   ar
    19     4     5   ar
    20     6     5   ar
    21     6     9    1
    22    10     9    1
    23     9    11    1
    24    11    12    1
