@<TRIPOS>MOLECULE
ZINC36978187_replica-1.pdb
 20 21 0 0 0
SMALL
GASTEIGER

@<TRIPOS>ATOM
      1  C8         9.5170   34.9090   59.2450 C.ar    0  <0>0        0.0643
      2  C9        10.4870   35.3100   60.1610 C.ar    0  <0>0        0.0207
      3  C10       10.8180   34.4450   61.1890 C.ar    0  <0>0        0.0590
      4  C11       10.1780   33.2170   61.2750 C.ar    0  <0>0        0.2250
      5  N2         9.2610   32.8690   60.3880 N.ar    0  <0>0       -0.2088
      6  C12        8.9150   33.6680   59.3960 C.ar    0  <0>0        0.1163
      7  N1         9.1500   35.7500   58.1880 N.pl3   0  <0>0       -0.3328
      8  H14        9.8250   36.0860   57.5780 H       0  <0>0        0.1468
      9  C7         7.7460   36.1240   58.0030 C.3     0  <0>0        0.0690
     10  C2         7.6090   36.9910   56.7490 C.3     0  <0>0        0.0179
     11  C1         8.0930   36.2040   55.5290 C.3     0  <0>0        0.0017
     12  C3         8.4560   38.2550   56.9100 C.3     0  <0>0        0.0016
     13  C4         7.9730   39.0420   58.1280 C.3     0  <0>0        0.0001
     14  C5         8.1090   38.1750   59.3820 C.3     0  <0>0        0.0017
     15  C6         7.2610   36.9110   59.2220 C.3     0  <0>0        0.0195
     16  O1        10.4950   32.3620   62.2810 O.3     0  <0>0       -0.4575
     17  C13       11.6800   32.6490   63.0270 C.3     0  <0>0        0.2390
     18  C14       12.5010   31.3680   63.1930 C.3     0  <0>0        0.1895
     19  O2        13.8750   31.7060   63.3900 O.3     0  <0>0       -0.3471
     20  C15       14.2000   33.0520   63.0370 C.3     0  <0>0        0.1743
@<TRIPOS>BOND
     1    11    10    1
     2    10    12    1
     3    10     9    1
     4    12    13    1
     5     8     7    1
     6     9     7    1
     7     9    15    1
     8    13    14    1
     9     7     1    1
    10    15    14    1
    11     1     6   ar
    12     1     2   ar
    13     6     5   ar
    14     2     3   ar
    15     5     4   ar
    16     3     4   ar
    17     4    16    1
    18    16    17    1
    19    17    18    1
    20    20    19    1
    21    18    19    1
