@<TRIPOS>MOLECULE
ZINC32620363_replica-1.pdb
 24 27 0 0 0
SMALL
GASTEIGER

@<TRIPOS>ATOM
      1  C7         7.8380   35.9130   58.7710 C.2     0  <0>0        0.1973
      2  N1         8.1030   36.2390   57.5240 N.2     0  <0>0       -0.3464
      3  C8         7.1190   36.3190   56.6180 C.1     0  <0>0        0.0383
      4  S1         7.4770   36.7430   54.9990 S.2     0  <0>0        0.0238
      5  C9         5.7750   36.0510   57.0040 C.2     0  <0>0        0.0503
      6  C10        5.5230   35.7110   58.2790 C.2     0  <0>0        0.0366
      7  N2         6.5650   35.6470   59.1690 N.pl3   0  <0>0       -0.2610
      8  C16        4.1420   35.3940   58.7850 C.3     0  <0>0        0.0418
      9  C17        3.0810   35.9280   57.8230 C.3     0  <0>0        0.0064
     10  C18        3.4290   35.4520   56.4080 C.3     0  <0>0        0.0058
     11  C19        4.7000   36.1710   55.9590 C.3     0  <0>0        0.0375
     12  C6         8.9390   35.8330   59.7520 C.ar    0  <0>0        0.0453
     13  C1         9.1060   36.8430   60.7030 C.ar    0  <0>0        0.0062
     14  C2        10.1330   36.7610   61.6190 C.ar    0  <0>0        0.0298
     15  C3        11.0030   35.6820   61.5920 C.ar    0  <0>0        0.1401
     16  C4        10.8450   34.6790   60.6490 C.ar    0  <0>0        0.0298
     17  F1        12.0110   35.6090   62.4900 F       0  <0>0       -0.2042
     18  C5         9.8190   34.7490   59.7310 C.ar    0  <0>0        0.0062
     19  C11        6.3040   35.2850   60.5640 C.3     0  <0>0        0.1274
     20  C12        6.0970   33.7960   60.6670 C.ar    0  <0>0        0.0388
     21  C15        5.1660   33.1640   61.4050 C.ar    0  <0>0        0.1771
     22  O1         5.3090   31.8410   61.2260 O.2     0  <0>0       -0.4476
     23  C14        6.3230   31.6100   60.3770 C.ar    0  <0>0        0.1795
     24  C13        6.8380   32.7940   59.9990 C.ar    0  <0>0        0.0412
@<TRIPOS>BOND
     1     4     3    2
     2    11    10    1
     3    11     5    1
     4    10     9    1
     5     3     5    1
     6     3     2    2
     7     5     6    2
     8     2     1    2
     9     9     8    1
    10     6     8    1
    11     6     7    1
    12     1     7    1
    13     1    12    1
    14     7    19    1
    15    18    12   ar
    16    18    16   ar
    17    12    13   ar
    18    24    23   ar
    19    24    20   ar
    20    23    22   ar
    21    19    20    1
    22    16    15   ar
    23    20    21   ar
    24    13    14   ar
    25    22    21   ar
    26    15    14   ar
    27    15    17    1
