@<TRIPOS>MOLECULE
ZINC41085526_replica-1.pdb
 21 22 0 0 0
SMALL
GASTEIGER

@<TRIPOS>ATOM
      1  C9        -0.5860   29.2690   55.3440 C.3     0  <0>0        0.1735
      2  C2        -1.1140   29.5650   53.9380 C.3     0  <0>0        0.0512
      3  C1        -2.5660   30.0390   54.0280 C.3     0  <0>0        0.0070
      4  C3        -1.0450   28.3130   53.1020 C.ar    0  <0>0       -0.0203
      5  C8        -0.3300   27.2190   53.5530 C.ar    0  <0>0       -0.0042
      6  C7        -0.2710   26.0700   52.7880 C.ar    0  <0>0       -0.0003
      7  C6        -0.9180   26.0160   51.5680 C.ar    0  <0>0       -0.0000
      8  C5        -1.6290   27.1120   51.1140 C.ar    0  <0>0       -0.0003
      9  C4        -1.6920   28.2600   51.8820 C.ar    0  <0>0       -0.0042
     10  C10        0.2120   30.4480   55.8390 C.2     0  <0>0        0.3354
     11  O1         0.4920   31.3480   55.0820 O.2     0  <0>0       -0.2483
     12  O2         0.6110   30.4990   57.1190 O.3     0  <0>0       -0.4433
     13  C11        0.3390   31.7040   57.8370 C.3     0  <0>0        0.2557
     14  N1        -1.7130   29.0270   56.2480 N.pl3   0  <0>0       -0.3252
     15  H14       -2.4220   29.6850   56.3250 H       0  <0>0        0.1473
     16  C12       -1.7670   27.8510   56.9990 C.ar    0  <0>0        0.0450
     17  C17       -0.6780   26.9900   57.0230 C.ar    0  <0>0        0.0143
     18  C16       -0.7320   25.8310   57.7720 C.ar    0  <0>0        0.0013
     19  C15       -1.8740   25.5210   58.4880 C.ar    0  <0>0        0.0001
     20  C14       -2.9620   26.3740   58.4620 C.ar    0  <0>0        0.0013
     21  C13       -2.9120   27.5380   57.7210 C.ar    0  <0>0        0.0143
@<TRIPOS>BOND
     1     8     7   ar
     2     8     9   ar
     3     7     6   ar
     4     9     4   ar
     5     6     5   ar
     6     4     5   ar
     7     4     2    1
     8     2     3    1
     9     2     1    1
    10    11    10    2
    11     1    10    1
    12     1    14    1
    13    10    12    1
    14    14    15    1
    15    14    16    1
    16    16    17   ar
    17    16    21   ar
    18    17    18   ar
    19    12    13    1
    20    21    20   ar
    21    18    19   ar
    22    20    19   ar
