@<TRIPOS>MOLECULE
ZINC62143050_replica-1.pdb
 22 23 0 0 0
SMALL
GASTEIGER

@<TRIPOS>ATOM
      1  C9         8.8230   36.3420   60.7010 C.3     0  <0>0        0.1370
      2  C8         9.2630   37.2100   59.5210 C.3     0  <0>0        0.0598
      3  C6         8.7810   36.5910   58.2340 C.ar    0  <0>0       -0.0237
      4  C5         8.4290   37.3980   57.1690 C.ar    0  <0>0       -0.0257
      5  C4         7.9860   36.8310   55.9880 C.ar    0  <0>0       -0.0049
      6  C17        8.5300   38.8960   57.2940 C.3     0  <0>0        0.0307
      7  C3         7.8960   35.4570   55.8730 C.ar    0  <0>0       -0.0046
      8  C2         8.2480   34.6490   56.9380 C.ar    0  <0>0       -0.0222
      9  C1         8.1490   33.1500   56.8130 C.3     0  <0>0        0.0310
     10  C7         8.6860   35.2170   58.1200 C.ar    0  <0>0       -0.0087
     11  C10       10.0380   35.7890   61.3990 C.ar    0  <0>0        0.0048
     12  C15       10.3810   34.4590   61.2400 C.ar    0  <0>0        0.0012
     13  C14       11.4980   33.9520   61.8750 C.ar    0  <0>0        0.0368
     14  C13       12.2700   34.7740   62.6810 C.ar    0  <0>0        0.1443
     15  C12       11.9200   36.1070   62.8450 C.ar    0  <0>0        0.0368
     16  C11       10.8060   36.6110   62.2030 C.ar    0  <0>0        0.0012
     17  O1        13.3660   34.2760   63.3110 O.3     0  <0>0       -0.4236
     18  C16       13.9370   33.0830   62.7710 C.3     0  <0>0        0.5087
     19  F1        15.3150   33.2590   62.6050 F       0  <0>0       -0.1550
     20  F2        13.7050   32.0170   63.6470 F       0  <0>0       -0.1550
     21  O2         8.0650   37.1330   61.6180 O.3     0  <0>0       -0.3797
     22  H15        8.3380   37.0370   62.5410 H       0  <0>0        0.2108
@<TRIPOS>BOND
     1     7     5   ar
     2     7     8   ar
     3     5     4   ar
     4     9     8    1
     5     8    10   ar
     6     4     6    1
     7     4     3   ar
     8    10     3   ar
     9     3     2    1
    10     2     1    1
    11     1    11    1
    12     1    21    1
    13    12    11   ar
    14    12    13   ar
    15    11    16   ar
    16    21    22    1
    17    13    14   ar
    18    16    15   ar
    19    19    18    1
    20    14    15   ar
    21    14    17    1
    22    18    17    1
    23    18    20    1
