@<TRIPOS>MOLECULE
ZINC66128519_replica-1.pdb
 28 31 0 0 0
SMALL
GASTEIGER

@<TRIPOS>ATOM
      1  C5         6.9980   33.1760   58.0730 C.ar    0  <0>0        0.1377
      2  C6         5.8300   32.6780   58.6590 C.ar    0  <0>0        0.0367
      3  C7         4.6200   33.2420   58.3980 C.ar    0  <0>0        0.0031
      4  C8         4.5380   34.3420   57.5260 C.ar    0  <0>0       -0.0000
      5  C9         3.3050   34.9490   57.2350 C.ar    0  <0>0       -0.0000
      6  C10        3.2610   36.0120   56.3850 C.ar    0  <0>0       -0.0000
      7  C11        4.4230   36.5110   55.8000 C.ar    0  <0>0       -0.0000
      8  C12        5.6350   35.9480   56.0590 C.ar    0  <0>0       -0.0001
      9  C13        5.7200   34.8490   56.9300 C.ar    0  <0>0        0.0021
     10  C14        6.9540   34.2460   57.2250 C.ar    0  <0>0        0.0486
     11  C15        8.2220   34.7750   56.6050 C.3     0  <0>0        0.1759
     12  N2         8.0220   36.1700   56.2090 N.am    0  <0>0       -0.2562
     13  C22        8.2720   37.1840   57.0570 C.2     0  <0>0        0.2516
     14  C23        7.5380   36.4710   54.8590 C.3     0  <0>0        0.1170
     15  C21        8.8360   36.8860   58.3860 C.ar    0  <0>0        0.0667
     16  O2         8.0360   38.3320   56.7320 O.2     0  <0>0       -0.2698
     17  C16        9.3640   35.6030   58.6170 C.ar    0  <0>0        0.0503
     18  C20        8.8610   37.8380   59.4020 C.ar    0  <0>0        0.0058
     19  N1         9.3150   34.6800   57.5810 N.pl3   0  <0>0       -0.3150
     20  C17        9.9090   35.2920   59.8520 C.ar    0  <0>0        0.0145
     21  H17        9.9890   33.9850   57.5020 H       0  <0>0        0.1486
     22  C18        9.9290   36.2470   60.8500 C.ar    0  <0>0        0.0013
     23  C19        9.4070   37.5120   60.6260 C.ar    0  <0>0        0.0002
     24  O1         8.1910   32.5920   58.3530 O.3     0  <0>0       -0.4757
     25  C4         8.1760   31.4900   59.2640 C.3     0  <0>0        0.2053
     26  C2         8.1390   32.0170   60.7000 C.3     0  <0>0        0.0438
     27  C1         7.4380   30.9980   61.6000 C.3     0  <0>0        0.0038
     28  C3         9.5690   32.2390   61.1990 C.3     0  <0>0        0.0038
@<TRIPOS>BOND
     1    14    12    1
     2     7     8   ar
     3     7     6   ar
     4     8     9   ar
     5    12    11    1
     6    12    13   am
     7     6     5   ar
     8    11    10    1
     9    11    19    1
    10    16    13    2
    11     9    10   ar
    12     9     4   ar
    13    13    15    1
    14    10     1   ar
    15     5     4   ar
    16    21    19    1
    17     4     3   ar
    18    19    17    1
    19     1    24    1
    20     1     2   ar
    21    24    25    1
    22    15    17   ar
    23    15    18   ar
    24     3     2   ar
    25    17    20   ar
    26    25    26    1
    27    18    23   ar
    28    20    22   ar
    29    23    22   ar
    30    26    28    1
    31    26    27    1
