@<TRIPOS>MOLECULE
ZINC35149807_replica-1.pdb
 22 22 0 0 0
SMALL
GASTEIGER

@<TRIPOS>ATOM
      1  C7         6.0620   36.0800   56.9000 C.2     0  <0>0        0.2232
      2  O1         6.6380   35.5090   55.9980 O.2     0  <0>0       -0.2751
      3  N1         6.7330   36.9410   57.6900 N.am    0  <0>0       -0.3022
      4  H14        6.2720   37.3970   58.4120 H       0  <0>0        0.1497
      5  C6         4.5960   35.8260   57.1360 C.3     0  <0>0        0.0957
      6  C3         4.4250   34.5530   57.9660 C.3     0  <0>0        0.1024
      7  C2         5.6810   34.3190   58.8080 C.3     0  <0>0        0.0112
      8  C1         5.3740   34.6160   60.2770 C.3     0  <0>0        0.0006
      9  C4         3.2130   34.7040   58.8890 C.3     0  <0>0        0.0112
     10  C5         2.4260   35.9550   58.4960 C.3     0  <0>0        0.0006
     11  C16        4.2120   33.3780   57.0460 C.2     0  <0>0        0.3643
     12  O2         3.3620   33.4320   56.1730 O.co2   0  <0>0       -0.2457
     13  O3         4.8910   32.3730   57.1750 O.co2   0  <0>0       -0.2457
     14  C8         8.1590   37.1880   57.4600 C.3     0  <0>0        0.0941
     15  C9         8.4000   38.6920   57.3190 C.3     0  <0>0        0.0262
     16  C10        8.9550   36.6580   58.6250 C.ar    0  <0>0       -0.0045
     17  C15        9.4710   35.3760   58.5840 C.ar    0  <0>0       -0.0018
     18  C14       10.2060   34.8920   59.6490 C.ar    0  <0>0        0.0111
     19  C13       10.4170   35.6860   60.7610 C.ar    0  <0>0        0.0577
     20  C12        9.8950   36.9670   60.8050 C.ar    0  <0>0        0.0111
     21 Cl         11.3350   35.0780   62.1030 Cl      0  <0>0       -0.0822
     22  C11        9.1650   37.4530   59.7360 C.ar    0  <0>0       -0.0018
@<TRIPOS>BOND
     1     2     1    2
     2    12    11   ar
     3     1     5    1
     4     1     3   am
     5    11    13   ar
     6    11     6    1
     7     5     6    1
     8    15    14    1
     9    14     3    1
    10    14    16    1
    11     3     4    1
    12     6     7    1
    13     6     9    1
    14    10     9    1
    15    17    16   ar
    16    17    18   ar
    17    16    22   ar
    18     7     8    1
    19    18    19   ar
    20    22    20   ar
    21    19    20   ar
    22    19    21    1
