@<TRIPOS>MOLECULE
ZINC17113631_replica-1.pdb
 35 39 0 0 0
SMALL
GASTEIGER

@<TRIPOS>ATOM
      1  C10        1.0640   32.2080   58.8170 C.3     0  <0>0        0.0649
      2  C11        0.1860   31.4670   57.8540 C.3     0  <0>0        0.1516
      3  C12       -0.3980   30.2500   58.2220 C.2     0  <0>0        0.2365
      4  O1        -0.2050   29.7770   59.3300 O.2     0  <0>0       -0.2742
      5  N1        -1.1830   29.6110   57.3280 N.am    0  <0>0       -0.2540
      6  H2        -1.6010   28.7680   57.5660 H       0  <0>0        0.1577
      7  C13       -1.3870   30.1440   56.0920 C.2     0  <0>0        0.2145
      8  N2        -0.8400   31.2910   55.7410 N.2     0  <0>0       -0.3697
      9  C14       -0.0590   31.9710   56.5880 C.2     0  <0>0        0.1714
     10  N3         0.5040   33.1730   56.2100 N.pl3   0  <0>0       -0.2946
     11  C15        0.9570   34.0570   57.1520 C.2     0  <0>0        0.0260
     12  C16        1.2360   33.6490   58.4070 C.2     0  <0>0        0.0265
     13  C17        1.7000   34.5560   59.3760 C.2     0  <0>0        0.1703
     14  O2         1.9200   34.1620   60.5050 O.2     0  <0>0       -0.2916
     15  C18        1.9310   36.0050   59.0440 C.3     0  <0>0        0.0693
     16  C19        2.2740   36.1240   57.5540 C.3     0  <0>0        0.0141
     17  C20        1.1350   35.5000   56.7460 C.3     0  <0>0        0.0414
     18  H14        0.5790   33.3940   55.2670 H       0  <0>0        0.1540
     19  C7         2.4160   31.5450   58.8650 C.ar    0  <0>0       -0.0174
     20  C6         3.3570   31.8240   57.8910 C.ar    0  <0>0       -0.0043
     21  C5         4.5980   31.2160   57.9350 C.ar    0  <0>0       -0.0046
     22  C4         4.8990   30.3320   58.9540 C.ar    0  <0>0       -0.0225
     23  C9         3.9580   30.0540   59.9300 C.ar    0  <0>0       -0.0046
     24  C8         2.7190   30.6650   59.8870 C.ar    0  <0>0       -0.0043
     25  C2         6.2520   29.6700   59.0040 C.3     0  <0>0        0.0224
     26  C1         6.0790   28.1740   59.2710 C.3     0  <0>0        0.0047
     27  C3         6.9660   29.8700   57.6650 C.3     0  <0>0        0.0047
     28  S1        -2.4090   29.2890   54.9400 S.3     0  <0>0       -0.0621
     29  C21       -1.3930   29.4330   53.4490 C.3     0  <0>0        0.0921
     30  C22       -1.0800   28.0580   52.9180 C.ar    0  <0>0       -0.0109
     31  C27       -0.3240   27.1810   53.6730 C.ar    0  <0>0       -0.0034
     32  C26       -0.0370   25.9200   53.1850 C.ar    0  <0>0       -0.0003
     33  C25       -0.5070   25.5360   51.9430 C.ar    0  <0>0       -0.0000
     34  C24       -1.2630   26.4130   51.1880 C.ar    0  <0>0       -0.0003
     35  C23       -1.5500   27.6740   51.6750 C.ar    0  <0>0       -0.0034
@<TRIPOS>BOND
     1    34    35   ar
     2    34    33   ar
     3    35    30   ar
     4    33    32   ar
     5    30    29    1
     6    30    31   ar
     7    32    31   ar
     8    29    28    1
     9    28     7    1
    10    18    10    1
    11     8     7    2
    12     8     9    2
    13     7     5    1
    14    10     9    1
    15    10    11    1
    16     9     2    1
    17    17    11    1
    18    17    16    1
    19    11    12    2
    20     5     6    1
    21     5     3   am
    22    16    15    1
    23    27    25    1
    24     2     3    1
    25     2     1    1
    26    20    21   ar
    27    20    19   ar
    28    21    22   ar
    29     3     4    2
    30    12     1    1
    31    12    13    1
    32     1    19    1
    33    19    24   ar
    34    22    25    1
    35    22    23   ar
    36    25    26    1
    37    15    13    1
    38    13    14    2
    39    24    23   ar
