@<TRIPOS>MOLECULE
ZINC40267959_replica-1.pdb
 27 30 0 0 0
SMALL
GASTEIGER

@<TRIPOS>ATOM
      1  C7         8.8180   36.9200   58.7580 C.3     0  <0>0        0.0765
      2  C8         8.8770   36.1320   57.4460 C.3     0  <0>0        0.1092
      3  C9         8.0230   34.8990   57.5040 C.2     0  <0>0        0.2512
      4  N1         6.9170   34.8290   58.1850 N.2     0  <0>0       -0.3548
      5  C10        6.5210   35.9110   58.9150 C.2     0  <0>0        0.2052
      6  C11        7.3830   36.9360   59.2220 C.2     0  <0>0        0.1040
      7  N2         6.7200   37.8340   59.9400 N.2     0  <0>0       -0.2478
      8  C12        5.4830   37.4370   60.1010 C.3     0  <0>0        0.2256
      9  N3         5.3170   36.2330   59.4690 N.pl3   0  <0>0       -0.2380
     10  C6         9.6820   36.2510   59.7960 C.ar    0  <0>0       -0.0139
     11  C1        10.1730   34.9790   59.5690 C.ar    0  <0>0       -0.0014
     12  C2        10.9650   34.3630   60.5200 C.ar    0  <0>0        0.0317
     13  C3        11.2700   35.0200   61.6990 C.ar    0  <0>0        0.1674
     14  C4        10.7770   36.2970   61.9260 C.ar    0  <0>0        0.1671
     15  F4        12.0440   34.4190   62.6290 F       0  <0>0       -0.2018
     16  C5         9.9850   36.9110   60.9730 C.ar    0  <0>0        0.0281
     17  F3        11.0720   36.9410   63.0770 F       0  <0>0       -0.2018
     18  O1         8.4210   33.8100   56.8150 O.2     0  <0>0       -0.4865
     19  H11        8.1920   33.8340   55.8750 H       0  <0>0        0.2945
     20  C13        4.1370   35.4770   59.4050 C.ar    0  <0>0        0.0850
     21  C18        4.0170   34.3090   60.1490 C.ar    0  <0>0        0.1539
     22  C17        2.8510   33.5680   60.0870 C.ar    0  <0>0        0.0332
     23  F1         5.0370   33.9010   60.9350 F       0  <0>0       -0.2029
     24  C16        1.8090   33.9820   59.2780 C.ar    0  <0>0        0.0320
     25  C15        1.9280   35.1420   58.5310 C.ar    0  <0>0        0.1415
     26  C14        3.0900   35.8900   58.5940 C.ar    0  <0>0        0.0468
     27  F2         0.9080   35.5440   57.7410 F       0  <0>0       -0.2041
@<TRIPOS>BOND
     1    19    18    1
     2    18     3    1
     3     2     3    1
     4     2     1    1
     5     3     4    2
     6    27    25    1
     7     4     5    2
     8    25    26   ar
     9    25    24   ar
    10    26    20   ar
    11     1     6    1
    12     1    10    1
    13     5     6    1
    14     5     9    1
    15     6     7    2
    16    24    22   ar
    17    20     9    1
    18    20    21   ar
    19     9     8    1
    20    11    10   ar
    21    11    12   ar
    22    10    16   ar
    23     7     8    1
    24    22    21   ar
    25    21    23    1
    26    12    13   ar
    27    16    14   ar
    28    13    14   ar
    29    13    15    1
    30    14    17    1
