@<TRIPOS>MOLECULE
ZINC01411625_replica-1.pdb
 28 31 0 0 0
SMALL
GASTEIGER

@<TRIPOS>ATOM
      1  N2         5.8090   34.6050   57.9670 N.am    0  <0>0       -0.1580
      2  C6         6.8110   35.4610   57.8700 C.2     0  <0>0        0.2776
      3  O1         6.8850   36.2380   56.9360 O.2     0  <0>0       -0.2673
      4  C7         7.8060   35.4460   58.8960 C.2     0  <0>0        0.0897
      5  C8         8.9260   36.2150   59.0290 C.2     0  <0>0        0.0486
      6  S1         7.1890   34.1430   59.9510 S.3     0  <0>0       -0.0586
      7  C19        5.7280   33.7430   59.0040 C.2     0  <0>0        0.1407
      8  S2         4.5320   32.5610   59.3260 S.2     0  <0>0       -0.0255
      9  C9         9.7820   36.0290   60.1360 C.ar    0  <0>0        0.1460
     10  O2        10.5120   34.9240   60.3950 O.2     0  <0>0       -0.4535
     11  C12       11.2110   35.1060   61.5300 C.ar    0  <0>0        0.1453
     12  C11       10.9290   36.3610   62.0220 C.ar    0  <0>0        0.0406
     13  C10       10.0210   36.9510   61.1400 C.ar    0  <0>0        0.0406
     14  C13       12.1260   34.1260   62.1450 C.ar    0  <0>0        0.0355
     15  C18       11.6240   32.9320   62.6690 C.ar    0  <0>0        0.0167
     16  C17       12.4840   32.0180   63.2430 C.ar    0  <0>0        0.0851
     17  C16       13.8440   32.2840   63.2990 C.ar    0  <0>0        0.1506
     18 Cl         11.8630   30.5340   63.8950 Cl      0  <0>0       -0.0799
     19  C15       14.3480   33.4670   62.7810 C.ar    0  <0>0        0.0306
     20  F1        14.6830   31.3870   63.8620 F       0  <0>0       -0.2033
     21  C14       13.4980   34.3850   62.2010 C.ar    0  <0>0        0.0054
     22  N1         4.8150   34.5910   56.9790 N.ar    0  <0>0       -0.2568
     23  C2         3.6030   35.2100   57.0630 C.ar    0  <0>0        0.0572
     24  C1         3.1050   36.0230   58.2310 C.3     0  <0>0        0.0519
     25  C3         2.9290   34.9720   55.9210 C.ar    0  <0>0        0.0157
     26  C4         3.7510   34.1700   55.1050 C.ar    0  <0>0        0.0157
     27  C5         4.8990   33.9530   55.7770 C.ar    0  <0>0        0.0572
     28  C20        6.0720   33.1450   55.2860 C.3     0  <0>0        0.0519
@<TRIPOS>BOND
     1    26    27   ar
     2    26    25   ar
     3    28    27    1
     4    27    22   ar
     5    25    23   ar
     6     3     2    2
     7    22    23   ar
     8    22     1    1
     9    23    24    1
    10     2     1   am
    11     2     4    1
    12     1     7    1
    13     4     5    2
    14     4     6    1
    15     7     8    2
    16     7     6    1
    17     5     9    1
    18     9    10   ar
    19     9    13   ar
    20    10    11   ar
    21    13    12   ar
    22    11    12   ar
    23    11    14    1
    24    14    21   ar
    25    14    15   ar
    26    21    19   ar
    27    15    16   ar
    28    19    17   ar
    29    16    17   ar
    30    16    18    1
    31    17    20    1
