@<TRIPOS>MOLECULE
ZINC13691028_replica-1.pdb
 27 30 0 0 0
SMALL
GASTEIGER

@<TRIPOS>ATOM
      1  C11       -1.2360   29.1430   57.6090 C.2     0  <0>0        0.0103
      2  C12       -0.2820   30.0200   58.0400 C.2     0  <0>0        0.0851
      3  C13        0.6650   30.8370   57.2610 C.2     0  <0>0        0.2633
      4  O2         0.6910   30.7970   56.0440 O.2     0  <0>0       -0.2687
      5  N1         1.4860   31.6140   57.9480 N.am    0  <0>0       -0.2223
      6  C14        1.4530   31.6550   59.2950 C.2     0  <0>0        0.1250
      7  S1         2.4230   32.5860   60.3550 S.2     0  <0>0       -0.0269
      8  S2         0.1530   30.5010   59.7060 S.3     0  <0>0       -0.0601
      9  C3        -1.3310   28.8260   56.2410 C.2     0  <0>0        0.0179
     10  C2        -2.3780   29.4870   55.3820 C.3     0  <0>0        0.1883
     11  C1        -2.7050   30.8680   55.9550 C.3     0  <0>0        0.0523
     12  O1        -1.9000   29.6340   54.0410 O.3     0  <0>0       -0.4748
     13  C10       -1.3470   28.5420   53.4580 C.ar    0  <0>0        0.1388
     14  C5        -0.6170   27.6390   54.2500 C.ar    0  <0>0        0.0338
     15  C9        -1.4880   28.3030   52.1030 C.ar    0  <0>0        0.0369
     16  C4        -0.4830   27.9160   55.6880 C.2     0  <0>0        0.0022
     17  C6        -0.0390   26.5100   53.6700 C.ar    0  <0>0        0.0030
     18  C7        -0.1900   26.2890   52.3160 C.ar    0  <0>0        0.0002
     19  C8        -0.9110   27.1800   51.5370 C.ar    0  <0>0        0.0031
     20  C15        2.4090   32.4120   57.2600 C.ar    0  <0>0        0.0623
     21  C20        2.0010   33.6060   56.6840 C.ar    0  <0>0        0.0519
     22  C19        2.9180   34.3940   56.0040 C.ar    0  <0>0        0.1349
     23  C18        4.2400   33.9860   55.9020 C.ar    0  <0>0        0.0367
     24  C17        4.6440   32.7950   56.4760 C.ar    0  <0>0        0.0044
     25  C16        3.7350   32.0110   57.1580 C.ar    0  <0>0        0.0155
     26  O3         2.5220   35.5640   55.4380 O.3     0  <0>0       -0.5055
     27  H15        3.2290   36.2170   55.3500 H       0  <0>0        0.2922
@<TRIPOS>BOND
     1    19    15   ar
     2    19    18   ar
     3    15    13   ar
     4    18    17   ar
     5    13    12    1
     6    13    14   ar
     7    17    14   ar
     8    12    10    1
     9    14    16    1
    10    27    26    1
    11    10    11    1
    12    10     9    1
    13    26    22    1
    14    16     9    2
    15    23    22   ar
    16    23    24   ar
    17    22    21   ar
    18     4     3    2
    19     9     1    1
    20    24    25   ar
    21    21    20   ar
    22    25    20   ar
    23    20     5    1
    24     3     5   am
    25     3     2    1
    26     1     2    2
    27     5     6    1
    28     2     8    1
    29     6     8    1
    30     6     7    2
