@<TRIPOS>MOLECULE
ZINC36357593_replica-1.pdb
 25 28 0 0 0
SMALL
GASTEIGER

@<TRIPOS>ATOM
      1  C7         7.9320   37.1970   58.3640 C.3     0  <0>0        0.0593
      2  C8         8.4540   37.2670   56.9200 C.3     0  <0>0        0.1060
      3  C9         7.3210   37.4820   55.9590 C.2     0  <0>0        0.2603
      4  N1         6.1230   37.0350   56.1240 N.2     0  <0>0       -0.3107
      5  C10        5.7920   36.3360   57.2800 C.1     0  <0>0        0.1286
      6  C11        6.6610   36.4210   58.3440 C.3     0  <0>0        0.1683
      7  S1         5.8790   35.4180   59.5720 S.3     0  <0>0       -0.0493
      8  C12        4.4420   34.9770   58.6020 C.2     0  <0>0        0.2234
      9  N2         4.6870   35.6050   57.4620 N.2     0  <0>0       -0.3212
     10  C6         8.9410   36.5030   59.2410 C.ar    0  <0>0       -0.0177
     11  C1         9.5030   35.3080   58.8340 C.ar    0  <0>0       -0.0018
     12  C2        10.4300   34.6690   59.6370 C.ar    0  <0>0        0.0316
     13  C3        10.7960   35.2260   60.8500 C.ar    0  <0>0        0.1674
     14  C4        10.2310   36.4260   61.2580 C.ar    0  <0>0        0.1671
     15  F2        11.7000   34.6020   61.6360 F       0  <0>0       -0.2018
     16  C5         9.3050   37.0620   60.4520 C.ar    0  <0>0        0.0278
     17  F1        10.5870   36.9710   62.4420 F       0  <0>0       -0.2018
     18  O1         7.5750   38.1960   54.8410 O.2     0  <0>0       -0.4860
     19  H17        6.8220   38.7140   54.5250 H       0  <0>0        0.2945
     20  N3         3.3590   34.1850   58.9490 N.pl3   0  <0>0       -0.2780
     21  C17        1.9950   34.5680   58.5610 C.3     0  <0>0        0.0936
     22  C16        1.1100   34.5880   59.8060 C.3     0  <0>0        0.0216
     23  C15        1.2050   33.2380   60.5180 C.3     0  <0>0        0.0035
     24  C14        2.6500   32.9890   60.9550 C.3     0  <0>0        0.0216
     25  C13        3.5540   32.9480   59.7190 C.3     0  <0>0        0.0936
@<TRIPOS>BOND
     1    19    18    1
     2    18     3    1
     3     3     4    2
     4     3     2    1
     5     4     5    2
     6     2     1    1
     7     5     9    2
     8     5     6    1
     9     9     8    2
    10     6     1    1
    11     6     7    1
    12     1    10    1
    13    21    20    1
    14    21    22    1
    15     8    20    1
    16     8     7    1
    17    11    10   ar
    18    11    12   ar
    19    20    25    1
    20    10    16   ar
    21    12    13   ar
    22    25    24    1
    23    22    23    1
    24    16    14   ar
    25    23    24    1
    26    13    14   ar
    27    13    15    1
    28    14    17    1
