@<TRIPOS>MOLECULE
ZINC16990645_replica-1.pdb
 27 30 0 0 0
SMALL
GASTEIGER

@<TRIPOS>ATOM
      1  C3         6.0990   34.4160   59.6920 C.3     0  <0>0        0.1691
      2  C4         7.5160   34.6970   60.2170 C.3     0  <0>0        0.0459
      3  C5         8.1370   35.8690   59.5110 C.3     0  <0>0        0.0261
      4  C6         7.0800   36.9340   59.1560 C.3     0  <0>0        0.0025
      5  C7         7.9430   38.1020   58.6570 C.3     0  <0>0        0.0025
      6  C8         9.2030   38.0530   59.5610 C.3     0  <0>0        0.0269
      7  C9         9.1450   36.7040   60.3230 C.3     0  <0>0        0.0884
      8  C10        8.6820   36.9380   61.7560 C.3     0  <0>0        0.0293
      9  C11        6.0430   36.4240   58.1980 C.3     0  <0>0        0.0042
     10  C12        5.9150   34.9020   58.2630 C.3     0  <0>0        0.0436
     11  C13        4.5310   34.5210   57.7130 C.3     0  <0>0        0.0190
     12  C14        3.4940   34.5690   58.8290 C.3     0  <0>0        0.0120
     13  C15        2.0920   34.3190   58.2660 C.3     0  <0>0        0.0695
     14  C16        1.8170   35.3000   57.1550 C.2     0  <0>0        0.1725
     15  O4         0.6750   35.6150   56.8940 O.2     0  <0>0       -0.2914
     16  C17        2.9240   35.8730   56.3960 C.2     0  <0>0        0.0289
     17  C18        4.1840   35.5260   56.6380 C.2     0  <0>0       -0.0419
     18  C19        5.3050   36.1350   55.8290 C.3     0  <0>0        0.0221
     19  C20        6.2410   36.9020   56.7680 C.3     0  <0>0        0.0045
     20  C21        4.5940   33.1250   57.0920 C.3     0  <0>0        0.0042
     21  C22        8.8940   35.3870   58.2610 C.3     0  <0>0        0.0024
     22  O2         5.8640   32.9810   59.7710 O.3     0  <0>0       -0.4523
     23  C2         5.6970   32.4580   60.9960 C.2     0  <0>0        0.3174
     24  C1         6.5310   31.2820   61.4330 C.3     0  <0>0        0.1212
     25  O1         4.8770   32.9300   61.7480 O.2     0  <0>0       -0.2501
     26  O3        10.4240   36.0710   60.3030 O.3     0  <0>0       -0.3867
     27  H17       10.3860   35.1080   60.2280 H       0  <0>0        0.2102
@<TRIPOS>BOND
     1    18    17    1
     2    18    19    1
     3    16    17    2
     4    16    14    1
     5    17    11    1
     6    19     9    1
     7    15    14    2
     8    20    11    1
     9    14    13    1
    10    11    10    1
    11    11    12    1
    12     9    10    1
    13     9     4    1
    14    21     3    1
    15    10     1    1
    16    13    12    1
    17     5     4    1
    18     5     6    1
    19     4     3    1
    20     3     2    1
    21     3     7    1
    22     6     7    1
    23     1    22    1
    24     1     2    1
    25    22    23    1
    26    27    26    1
    27    26     7    1
    28     7     8    1
    29    23    24    1
    30    23    25    2
