@<TRIPOS>MOLECULE
ZINC17077060_replica-1.pdb
 27 28 0 0 0
SMALL
GASTEIGER

@<TRIPOS>ATOM
      1  C6        11.4200   34.8280   61.4150 C.3     0  <0>0        0.0052
      2  C7        10.8030   36.1400   61.9090 C.3     0  <0>0        0.0051
      3  C8        10.0790   36.8400   60.7570 C.3     0  <0>0        0.0273
      4  C9         9.1120   35.8530   60.1140 C.ar    0  <0>0       -0.0088
      5  C10        9.2450   34.5220   60.3070 C.ar    0  <0>0        0.0052
      6  S1         7.9210   33.7970   59.3820 S.2     0  <0>0       -0.0762
      7  C11        7.2010   35.2390   58.7470 C.ar    0  <0>0        0.0898
      8  C12        8.0000   36.2470   59.2660 C.ar    0  <0>0        0.0843
      9  C13        7.7400   37.6240   58.9750 C.1     0  <0>0        0.1019
     10  N1         7.5340   38.7170   58.7450 N.1     0  <0>0       -0.1908
     11  C20       10.2900   33.8290   61.1260 C.3     0  <0>0        0.0327
     12  N2         6.0930   35.3570   57.9200 N.am    0  <0>0       -0.2784
     13  C14        4.8710   35.5520   58.4530 C.2     0  <0>0        0.2265
     14  O1         4.7380   35.6230   59.6560 O.2     0  <0>0       -0.2748
     15  H18        6.1990   35.3000   56.9570 H       0  <0>0        0.1553
     16  C15        3.6680   35.6800   57.5540 C.3     0  <0>0        0.0859
     17  C16        3.7190   34.5970   56.4750 C.3     0  <0>0        0.0203
     18  C17        2.4410   33.7570   56.5350 C.3     0  <0>0        0.0011
     19  C18        3.8340   35.2530   55.0980 C.3     0  <0>0        0.1145
     20  C19        4.9830   34.6390   54.3430 C.2     0  <0>0        0.3649
     21  O2         4.9630   34.6030   53.1350 O.co2   0  <0>0       -0.2457
     22  O3         6.0310   34.1320   55.0120 O.co2   0  <0>0       -0.2457
     23  C3        12.3440   34.2590   62.4930 C.3     0  <0>0        0.0003
     24  C4        12.3790   35.2110   63.6900 C.3     0  <0>0        0.0000
     25  C5        13.7560   34.1040   61.9240 C.3     0  <0>0        0.0000
     26  C2        11.8220   32.8930   62.9430 C.3     0  <0>0        0.0000
     27  C1        12.9930   31.9150   63.0660 C.3     0  <0>0        0.0000
@<TRIPOS>BOND
     1    21    20   ar
     2    20    22   ar
     3    20    19    1
     4    19    17    1
     5    17    18    1
     6    17    16    1
     7    15    12    1
     8    16    13    1
     9    12    13   am
    10    12     7    1
    11    13    14    2
    12    10     9    3
    13     7     8   ar
    14     7     6   ar
    15     9     8    1
    16     8     4   ar
    17     6     5   ar
    18     4     5   ar
    19     4     3    1
    20     5    11    1
    21     3     2    1
    22    11     1    1
    23     1     2    1
    24     1    23    1
    25    25    23    1
    26    23    26    1
    27    23    24    1
    28    26    27    1
