@<TRIPOS>MOLECULE
ZINC02792541_replica-1.pdb
 24 26 0 0 0
SMALL
GASTEIGER

@<TRIPOS>ATOM
      1  C8         0.4840   30.3610   55.7420 C.2     0  <0>0        0.2135
      2  N2         0.5280   31.6720   55.7330 N.2     0  <0>0       -0.3839
      3  C9         0.6240   32.4050   56.8660 C.2     0  <0>0        0.1256
      4  C10        0.6810   33.8120   56.9920 C.2     0  <0>0        0.0319
      5  C11        0.7780   34.4020   58.2240 C.2     0  <0>0        0.0391
      6  C12        0.8250   33.6440   59.3910 C.2     0  <0>0        0.1414
      7  C13        0.7720   32.2610   59.3010 C.2     0  <0>0        0.0289
      8  C14        0.6740   31.6660   58.0690 C.3     0  <0>0        0.1325
      9  S1         0.5810   29.9890   57.4870 S.3     0  <0>0       -0.0560
     10  N1         0.3870   29.4880   54.6730 N.am    0  <0>0       -0.2509
     11  C7        -0.7590   28.8120   54.4560 C.2     0  <0>0        0.2525
     12  O1        -1.7070   28.9690   55.2000 O.2     0  <0>0       -0.2697
     13  H5         1.1430   29.3620   54.0790 H       0  <0>0        0.1580
     14  C5        -0.8620   27.8800   53.3150 C.ar    0  <0>0        0.0643
     15  C4        -0.3070   26.6010   53.4000 C.ar    0  <0>0        0.0620
     16  C3        -0.4080   25.7350   52.3280 C.ar    0  <0>0        0.0115
     17 Cl          0.5080   26.1000   54.8480 Cl      0  <0>0       -0.0821
     18  C2        -1.0560   26.1330   51.1730 C.ar    0  <0>0        0.0009
     19  C1        -1.6090   27.3990   51.0830 C.ar    0  <0>0        0.0002
     20  C6        -1.5210   28.2720   52.1470 C.ar    0  <0>0        0.0054
     21  O2         0.9230   34.2520   60.6030 O.2     0  <0>0       -0.4239
     22  C15       -0.0470   33.8930   61.5880 C.3     0  <0>0        0.5086
     23  F1         0.5960   33.3120   62.6870 F       0  <0>0       -0.1550
     24  F2        -0.7350   35.0380   62.0050 F       0  <0>0       -0.1550
@<TRIPOS>BOND
     1    19    18   ar
     2    19    20   ar
     3    18    16   ar
     4    20    14   ar
     5    16    15   ar
     6    14    15   ar
     7    14    11    1
     8    15    17    1
     9    13    10    1
    10    11    10   am
    11    11    12    2
    12    10     1    1
    13     2     1    2
    14     2     3    2
    15     1     9    1
    16     3     4    1
    17     3     8    1
    18     4     5    2
    19     9     8    1
    20     8     7    1
    21     5     6    1
    22     7     6    2
    23     6    21    1
    24    21    22    1
    25    22    24    1
    26    22    23    1
