@<TRIPOS>MOLECULE
ZINC03295089_replica-1.pdb
 24 25 0 0 0
SMALL
GASTEIGER

@<TRIPOS>ATOM
      1  C10       -0.1200   30.7710   56.8100 C.ar    0  <0>0        0.1865
      2  N2        -0.1800   31.9640   56.2510 N.ar    0  <0>0       -0.1249
      3  N3         0.7360   32.9300   56.6000 N.ar    0  <0>0       -0.1331
      4  C11        1.6690   32.6580   57.4930 C.ar    0  <0>0        0.1610
      5  S1         1.2880   30.9590   57.8930 S.2     0  <0>0       -0.0242
      6  N1        -0.9340   29.6620   56.6080 N.pl3   0  <0>0       -0.2913
      7  H12       -1.5510   29.3800   57.3010 H       0  <0>0        0.1541
      8  C7        -0.8610   28.9520   55.4070 C.ar    0  <0>0        0.0497
      9  C6        -0.0580   27.8230   55.3120 C.ar    0  <0>0        0.0143
     10  C5         0.0110   27.1240   54.1220 C.ar    0  <0>0       -0.0030
     11  C4        -0.7190   27.5480   53.0270 C.ar    0  <0>0       -0.0224
     12  C9        -1.5180   28.6730   53.1170 C.ar    0  <0>0       -0.0030
     13  C8        -1.5970   29.3730   54.3050 C.ar    0  <0>0        0.0143
     14  C2        -0.6410   26.7830   51.7300 C.3     0  <0>0        0.0224
     15  C1        -0.6600   25.2820   52.0230 C.3     0  <0>0        0.0047
     16  C3        -1.8370   27.1480   50.8500 C.3     0  <0>0        0.0047
     17  S2         2.9520   33.6920   58.1170 S.3     0  <0>0       -0.0787
     18  C12        4.3750   33.3150   57.0570 C.3     0  <0>0        0.1283
     19  C13        5.1880   34.5670   56.8440 C.2     0  <0>0        0.1611
     20  O1         5.8740   34.9990   57.7390 O.2     0  <0>0       -0.2951
     21  C14        5.1450   35.2770   55.5160 C.3     0  <0>0        0.0524
     22  C15        6.5420   35.7970   55.1710 C.3     0  <0>0        0.0074
     23  C16        4.6810   34.3030   54.4310 C.3     0  <0>0        0.0074
     24  C17        4.1680   36.4520   55.5970 C.3     0  <0>0        0.0074
@<TRIPOS>BOND
     1    16    14    1
     2    14    15    1
     3    14    11    1
     4    11    12   ar
     5    11    10   ar
     6    12    13   ar
     7    10     9   ar
     8    13     8   ar
     9    23    21    1
    10    22    21    1
    11     9     8   ar
    12     8     6    1
    13    21    24    1
    14    21    19    1
    15     2     3   ar
    16     2     1   ar
    17     3     4   ar
    18     6     1    1
    19     6     7    1
    20     1     5   ar
    21    19    18    1
    22    19    20    2
    23    18    17    1
    24     4     5   ar
    25     4    17    1
