@<TRIPOS>MOLECULE
ZINC37277592_replica-1.pdb
 22 23 0 0 0
SMALL
GASTEIGER

@<TRIPOS>ATOM
      1  N1         7.2920   37.1170   58.4180 N.pl3   0  <0>0       -0.3306
      2  H15        6.8960   37.9750   58.6370 H       0  <0>0        0.1471
      3  C8         8.3530   36.6210   59.1800 C.ar    0  <0>0        0.0448
      4  C7         8.9930   35.4490   58.8020 C.ar    0  <0>0        0.0140
      5  C6        10.0420   34.9620   59.5570 C.ar    0  <0>0       -0.0030
      6  C5        10.4540   35.6410   60.6890 C.ar    0  <0>0       -0.0224
      7  C10        9.8150   36.8060   61.0720 C.ar    0  <0>0       -0.0030
      8  C9         8.7690   37.3020   60.3170 C.ar    0  <0>0        0.0140
      9  C3        11.6000   35.1070   61.5110 C.3     0  <0>0        0.0223
     10  C4        11.8060   35.9990   62.7360 C.3     0  <0>0        0.0047
     11  C2        11.2800   33.6820   61.9650 C.3     0  <0>0        0.0044
     12  C1        12.3570   33.2040   62.9410 C.3     0  <0>0        0.0003
     13  C11        6.7760   36.3400   57.2880 C.3     0  <0>0        0.0918
     14  C12        5.2870   36.1660   57.4360 C.ar    0  <0>0       -0.0046
     15  C17        4.7270   36.0440   58.6960 C.ar    0  <0>0       -0.0027
     16  C16        3.3610   35.8890   58.8320 C.ar    0  <0>0       -0.0003
     17  C15        2.5540   35.8470   57.7100 C.ar    0  <0>0       -0.0000
     18  C14        3.1130   35.9650   56.4520 C.ar    0  <0>0       -0.0003
     19  C13        4.4800   36.1240   56.3150 C.ar    0  <0>0       -0.0027
     20  C18        7.0740   37.0800   55.9820 C.3     0  <0>0        0.0221
     21  C19        7.5300   38.5070   56.2960 C.3     0  <0>0        0.0020
     22  C20        8.1820   36.3470   55.2230 C.3     0  <0>0        0.0020
@<TRIPOS>BOND
     1    22    20    1
     2    20    21    1
     3    20    13    1
     4    19    18   ar
     5    19    14   ar
     6    18    17   ar
     7    13    14    1
     8    13     1    1
     9    14    15   ar
    10    17    16   ar
    11     1     2    1
    12     1     3    1
    13    15    16   ar
    14     4     3   ar
    15     4     5   ar
    16     3     8   ar
    17     5     6   ar
    18     8     7   ar
    19     6     7   ar
    20     6     9    1
    21     9    11    1
    22     9    10    1
    23    11    12    1
