@<TRIPOS>MOLECULE
ZINC32768117_replica-1.pdb
 24 27 0 0 0
SMALL
GASTEIGER

@<TRIPOS>ATOM
      1  N2         0.1360   31.0070   56.8500 N.am    0  <0>0       -0.2488
      2  C9         1.0590   31.9710   56.6650 C.2     0  <0>0        0.2781
      3  O1         1.6970   32.0110   55.6300 O.2     0  <0>0       -0.2673
      4  H7        -0.4410   30.9710   57.7860 H       0  <0>0        0.1581
      5  C8        -0.0850   30.0620   55.8640 C.2     0  <0>0        0.2175
      6  S1        -1.0560   30.2050   54.3700 S.3     0  <0>0       -0.0377
      7  C6        -0.7690   28.5620   53.7580 C.2     0  <0>0        0.0587
      8  C5         0.0710   28.0130   54.7540 C.2     0  <0>0        0.1391
      9  C7        -1.1630   27.8560   52.6500 C.2     0  <0>0       -0.0129
     10  C4         0.4920   26.6790   54.5500 C.2     0  <0>0        0.0284
     11  N1         0.3710   28.8340   55.7850 N.2     0  <0>0       -0.3799
     12  C3         0.0940   25.9810   53.4390 C.2     0  <0>0       -0.0194
     13  C2        -0.7320   26.5530   52.4820 C.3     0  <0>0        0.0447
     14  C1        -1.1550   25.7610   51.2700 C.3     0  <0>0        0.0094
     15  C10        1.2950   32.9770   57.7140 C.2     0  <0>0        0.1742
     16  N3         2.5300   33.3990   57.9790 N.2     0  <0>0       -0.3945
     17  C12        2.7260   34.3060   58.9190 C.2     0  <0>0        0.1576
     18  S2         1.0620   34.5940   59.4990 S.3     0  <0>0       -0.0746
     19  C11        0.2470   33.4880   58.4370 C.3     0  <0>0        0.1281
     20  C13        3.9910   34.9190   59.3750 C.ar    0  <0>0        0.0426
     21  C16        4.6740   34.4040   60.4420 C.ar    0  <0>0        0.0385
     22  S3         6.0470   35.4540   60.5620 S.2     0  <0>0       -0.0858
     23  C15        5.6750   36.5490   59.2050 C.ar    0  <0>0        0.0356
     24  C14        4.5150   36.0410   58.7340 C.ar    0  <0>0        0.0105
@<TRIPOS>BOND
     1    14    13    1
     2    13     9    1
     3    13    12    1
     4     9     7    2
     5    12    10    2
     6     7     6    1
     7     7     8    1
     8     6     5    1
     9    10     8    1
    10     8    11    2
    11     3     2    2
    12    11     5    2
    13     5     1    1
    14     2     1   am
    15     2    15    1
    16     1     4    1
    17    15    16    2
    18    15    19    1
    19    16    17    2
    20    19    18    1
    21    24    23   ar
    22    24    20   ar
    23    17    20    1
    24    17    18    1
    25    23    22   ar
    26    20    21   ar
    27    21    22   ar
