@<TRIPOS>MOLECULE
ZINC51362669_replica-1.pdb
 21 23 0 0 0
SMALL
GASTEIGER

@<TRIPOS>ATOM
      1  C1         1.6210   34.6570   59.3500 C.3     0  <0>0        0.1369
      2  N1         2.4580   35.2380   58.2970 N.ar    0  <0>0       -0.2601
      3  C2         3.8510   35.2250   58.2510 C.ar    0  <0>0        0.1000
      4  C3         4.8270   34.7150   59.0940 C.ar    0  <0>0        0.0202
      5  C4         6.1610   34.8650   58.7700 C.ar    0  <0>0       -0.0011
      6  C5         6.5260   35.5220   57.6080 C.ar    0  <0>0       -0.0002
      7  C6         5.5600   36.0320   56.7630 C.ar    0  <0>0        0.0364
      8  C7         4.2180   35.8870   57.0800 C.ar    0  <0>0        0.1657
      9  O1         3.0750   36.2730   56.4620 O.2     0  <0>0       -0.4068
     10  C8         2.0220   35.8770   57.1930 C.ar    0  <0>0        0.4220
     11  O2         0.8560   36.0660   56.9060 O.2     0  <0>0       -0.2226
     12  C9         7.9840   35.6820   57.2630 C.3     0  <0>0        0.1244
     13 Cl          8.1800   37.0390   56.0930 Cl      0  <0>0       -0.1053
     14  C10        8.7680   35.9800   58.5150 C.ar    0  <0>0       -0.0010
     15  C15        9.6690   35.0540   59.0030 C.ar    0  <0>0        0.0292
     16  C14       10.3920   35.3300   60.1500 C.ar    0  <0>0        0.1671
     17  C13       10.2040   36.5320   60.8140 C.ar    0  <0>0        0.1674
     18  F1        11.2790   34.4270   60.6250 F       0  <0>0       -0.2018
     19  C12        9.2960   37.4560   60.3260 C.ar    0  <0>0        0.0317
     20  F2        10.9060   36.8020   61.9370 F       0  <0>0       -0.2018
     21  C11        8.5790   37.1790   59.1770 C.ar    0  <0>0       -0.0003
@<TRIPOS>BOND
     1    13    12    1
     2     9     8   ar
     3     9    10   ar
     4     7     8   ar
     5     7     6   ar
     6    11    10    2
     7     8     3   ar
     8    10     2   ar
     9    12     6    1
    10    12    14    1
    11     6     5   ar
    12     3     2   ar
    13     3     4   ar
    14     2     1    1
    15    14    15   ar
    16    14    21   ar
    17     5     4   ar
    18    15    16   ar
    19    21    19   ar
    20    16    18    1
    21    16    17   ar
    22    19    17   ar
    23    17    20    1
