@<TRIPOS>MOLECULE
ZINC61794625_replica-1.pdb
 20 20 0 0 0
SMALL
GASTEIGER

@<TRIPOS>ATOM
      1  C4        -1.2380   28.4910   53.9920 C.3     0  <0>0        0.0018
      2  C5        -2.1740   29.6950   54.0580 C.3     0  <0>0        0.0018
      3  C6        -2.8170   29.7520   55.4220 C.3     0  <0>0        0.0216
      4  C7        -1.9770   30.6320   56.3660 C.3     0  <0>0        0.0949
      5  N1        -0.5280   30.4100   56.1910 N.am    0  <0>0       -0.2642
      6  C8         0.0460   29.0930   56.0240 C.3     0  <0>0        0.0949
      7  C9         0.1120   28.7430   54.5170 C.3     0  <0>0        0.0216
      8  C10        0.2930   31.4780   56.1880 C.2     0  <0>0        0.3040
      9  O1        -0.1710   32.6010   56.2370 O.2     0  <0>0       -0.2526
     10  N2         1.6280   31.3020   56.1280 N.am    0  <0>0       -0.2887
     11  H19        1.9950   30.4120   56.0140 H       0  <0>0        0.1510
     12  C11        2.5240   32.4560   56.2360 C.3     0  <0>0        0.0935
     13  C12        3.3940   32.3080   57.4860 C.3     0  <0>0        0.0533
     14  C13        2.7830   33.1170   58.6320 C.3     0  <0>0        0.1439
     15  O2         1.6710   32.4040   59.1780 O.3     0  <0>0       -0.3537
     16  C14        0.6130   33.2450   59.6450 C.3     0  <0>0        0.1422
     17  C15        0.8170   34.6650   59.1130 C.3     0  <0>0        0.0346
     18  C3        -1.1160   28.0510   52.5310 C.3     0  <0>0        0.0001
     19  C2        -0.5200   26.6430   52.4700 C.3     0  <0>0        0.0000
     20  C1        -1.2170   25.8420   51.3690 C.3     0  <0>0        0.0000
@<TRIPOS>BOND
     1    20    19    1
     2    19    18    1
     3    18     1    1
     4     1     2    1
     5     1     7    1
     6     2     3    1
     7     7     6    1
     8     3     4    1
     9    11    10    1
    10     6     5    1
    11    10     8   am
    12    10    12    1
    13     8     5   am
    14     8     9    2
    15     5     4    1
    16    12    13    1
    17    13    14    1
    18    14    15    1
    19    17    16    1
    20    15    16    1
