@<TRIPOS>MOLECULE
ZINC06534166_replica-1.pdb
 27 29 0 0 0
SMALL
GASTEIGER

@<TRIPOS>ATOM
      1  C9        10.0170   35.0090   60.8000 C.2     0  <0>0        0.0825
      2  N2         9.2900   35.9220   61.4150 N.2     0  <0>0       -0.2453
      3  C8         9.8770   34.8120   59.3590 C.2     0  <0>0        0.0349
      4  C7         8.8930   34.0260   58.8780 C.2     0  <0>0        0.0635
      5  N1         8.6760   33.9480   57.5250 N.pl3   0  <0>0       -0.3115
      6  H6         9.0570   33.2170   57.0140 H       0  <0>0        0.1523
      7  C4         7.9060   34.9210   56.8840 C.ar    0  <0>0        0.0483
      8  C3         8.4670   35.7060   55.8840 C.ar    0  <0>0        0.0146
      9  C2         7.7030   36.6670   55.2520 C.ar    0  <0>0        0.0013
     10  C1         6.3800   36.8470   55.6130 C.ar    0  <0>0        0.0001
     11  C6         5.8180   36.0680   56.6070 C.ar    0  <0>0        0.0013
     12  C5         6.5760   35.1050   57.2430 C.ar    0  <0>0        0.0146
     13  C16       10.9750   34.1840   61.5710 C.ar    0  <0>0        0.0178
     14  C21       10.6350   32.8850   61.9490 C.ar    0  <0>0        0.0032
     15  C20       11.5340   32.1180   62.6610 C.ar    0  <0>0        0.0241
     16  C19       12.7660   32.6400   63.0110 C.ar    0  <0>0        0.1429
     17  C18       13.1080   33.9300   62.6440 C.ar    0  <0>0        0.0241
     18  C17       12.2190   34.7040   61.9260 C.ar    0  <0>0        0.0032
     19  N3        13.7250   31.8150   63.7800 N.pl3   0  <0>0        0.0577
     20  O1        14.7750   32.2890   64.1450 O.2     0  <0>0       -0.1261
     21  O2        13.4560   30.6660   64.0460 O.2     0  <0>0       -0.1261
     22  C10        8.5300   36.7930   60.6880 C.ar    0  <0>0        0.0813
     23  C15        9.1420   37.7310   59.8530 C.ar    0  <0>0        0.0191
     24  C14        8.3680   38.6030   59.1170 C.ar    0  <0>0        0.0015
     25  C13        6.9880   38.5590   59.2140 C.ar    0  <0>0        0.0001
     26  C12        6.3750   37.6360   60.0440 C.ar    0  <0>0        0.0015
     27  C11        7.1350   36.7530   60.7800 C.ar    0  <0>0        0.0191
@<TRIPOS>BOND
     1     9    10   ar
     2     9     8   ar
     3    10    11   ar
     4     8     7   ar
     5    11    12   ar
     6     7    12   ar
     7     7     5    1
     8     6     5    1
     9     5     4    1
    10     4     3    2
    11    24    25   ar
    12    24    23   ar
    13    25    26   ar
    14     3     1    1
    15    23    22   ar
    16    26    27   ar
    17    22    27   ar
    18    22     2    1
    19     1     2    2
    20     1    13    1
    21    13    18   ar
    22    13    14   ar
    23    18    17   ar
    24    14    15   ar
    25    17    16   ar
    26    15    16   ar
    27    16    19    1
    28    19    21    2
    29    19    20    2
