@<TRIPOS>MOLECULE
ZINC61691375_replica-1.pdb
 21 21 0 0 0
SMALL
GASTEIGER

@<TRIPOS>ATOM
      1  C7         8.2730   33.6540   58.3840 C.3     0  <0>0        0.1466
      2  C8         8.4370   32.5320   57.3560 C.3     0  <0>0        0.0311
      3  C6         7.0390   34.4560   58.0590 C.2     0  <0>0        0.2402
      4  N1         6.8220   34.8790   56.7990 N.am    0  <0>0       -0.3046
      5  H13        7.4610   34.6690   56.1000 H       0  <0>0        0.1494
      6  O1         6.2400   34.7190   58.9330 O.2     0  <0>0       -0.2733
      7  C3         5.6220   35.6580   56.4830 C.3     0  <0>0        0.0716
      8  C2         6.0180   36.9090   55.6960 C.3     0  <0>0        0.0196
      9  C1         7.4870   36.8060   55.2800 C.3     0  <0>0        0.0017
     10  C4         4.6690   34.8070   55.6420 C.3     0  <0>0        0.0196
     11  C5         5.4760   33.8090   54.8100 C.3     0  <0>0        0.0017
     12  N2         9.4480   34.5290   58.3440 N.pl3   0  <0>0       -0.3263
     13  H17        9.9020   34.6920   57.5020 H       0  <0>0        0.1472
     14  C9         9.9150   35.1250   59.5170 C.ar    0  <0>0        0.0561
     15  C14        9.5780   36.4410   59.8120 C.ar    0  <0>0        0.0708
     16  C13       10.0370   37.0260   60.9760 C.ar    0  <0>0        0.0131
     17 Cl          8.5750   37.3450   58.7210 Cl      0  <0>0       -0.0810
     18  C12       10.8400   36.3080   61.8430 C.ar    0  <0>0        0.0076
     19  C11       11.1830   35.0000   61.5500 C.ar    0  <0>0        0.0358
     20  C10       10.7220   34.4070   60.3900 C.ar    0  <0>0        0.0219
     21 Br         12.2830   34.0220   62.7380 Br      0  <0>0       -0.0490
@<TRIPOS>BOND
     1    11    10    1
     2     9     8    1
     3    10     7    1
     4     8     7    1
     5     5     4    1
     6     7     4    1
     7     4     3   am
     8     2     1    1
     9    13    12    1
    10     3     1    1
    11     3     6    2
    12    12     1    1
    13    12    14    1
    14    17    15    1
    15    14    15   ar
    16    14    20   ar
    17    15    16   ar
    18    20    19   ar
    19    16    18   ar
    20    19    18   ar
    21    19    21    1
