@<TRIPOS>MOLECULE
ZINC09241795_replica-1.pdb
 28 31 0 0 0
SMALL
GASTEIGER

@<TRIPOS>ATOM
      1  C7         7.3560   34.4370   60.1170 C.2     0  <0>0        0.2595
      2  O1         6.4670   34.1240   60.8870 O.2     0  <0>0       -0.2693
      3  N1         7.1630   34.3350   58.7870 N.am    0  <0>0       -0.2208
      4  C8         8.2680   34.6040   57.8640 C.3     0  <0>0        0.1295
      5  C9         7.9510   35.8290   57.0450 C.ar    0  <0>0        0.0173
      6  C13        7.5990   35.7080   55.7140 C.ar    0  <0>0        0.0962
      7  N2         7.3210   36.7740   54.9900 N.ar    0  <0>0       -0.2426
      8  C12        7.3660   37.9900   55.5000 C.ar    0  <0>0        0.0989
      9  C11        7.7030   38.1880   56.8250 C.ar    0  <0>0        0.0204
     10  C10        8.0090   37.0910   57.6160 C.ar    0  <0>0        0.0005
     11  C14        5.9190   33.9780   58.2940 C.2     0  <0>0        0.2209
     12  S1         5.3590   32.3830   57.7160 S.3     0  <0>0       -0.0374
     13  C20        3.7020   32.8650   57.2980 C.2     0  <0>0        0.0599
     14  C15        3.6960   34.2400   57.6280 C.2     0  <0>0        0.1391
     15  C19        2.6030   32.2240   56.7820 C.2     0  <0>0        0.0033
     16  N3         4.8540   34.7270   58.1260 N.2     0  <0>0       -0.3797
     17  C16        2.4860   34.9330   57.3980 C.2     0  <0>0        0.0296
     18  C17        1.3930   34.2850   56.8840 C.2     0  <0>0       -0.0032
     19  C18        1.4350   32.9320   56.5710 C.3     0  <0>0        0.1244
     20 Cl          0.0340   32.1400   55.9190 Cl      0  <0>0       -0.1053
     21  C4         8.6460   34.9250   60.6400 C.ar    0  <0>0        0.1087
     22  C3         8.7910   36.2650   61.0140 C.ar    0  <0>0        0.1467
     23  C2        10.0030   36.7140   61.5020 C.ar    0  <0>0        0.0299
     24  F2         7.7490   37.1180   60.8970 F       0  <0>0       -0.2039
     25  C1        11.0710   35.8440   61.6220 C.ar    0  <0>0        0.0046
     26  C6        10.9360   34.5170   61.2560 C.ar    0  <0>0        0.0299
     27  C5         9.7300   34.0490   60.7690 C.ar    0  <0>0        0.1467
     28  F1         9.5980   32.7520   60.4170 F       0  <0>0       -0.2039
@<TRIPOS>BOND
     1     7     8   ar
     2     7     6   ar
     3     8     9   ar
     4     6     5   ar
     5    20    19    1
     6    19    15    1
     7    19    18    1
     8    15    13    2
     9     9    10   ar
    10    18    17    2
    11     5    10   ar
    12     5     4    1
    13    13    14    1
    14    13    12    1
    15    17    14    1
    16    14    16    2
    17    12    11    1
    18     4     3    1
    19    16    11    2
    20    11     3    1
    21     3     1   am
    22     1    21    1
    23     1     2    2
    24    28    27    1
    25    21    27   ar
    26    21    22   ar
    27    27    26   ar
    28    24    22    1
    29    22    23   ar
    30    26    25   ar
    31    23    25   ar
