@<TRIPOS>MOLECULE
ZINC30882721_replica-1.pdb
 27 28 0 0 0
SMALL
GASTEIGER

@<TRIPOS>ATOM
      1  C8         8.2860   34.3240   59.4880 C.3     0  <0>0        0.0890
      2  C7         8.8620   34.6120   58.1010 C.3     0  <0>0        0.0271
      3  C2         8.0090   33.9500   57.0600 C.2     0  <0>0       -0.0479
      4  C1         8.1580   32.4630   56.8640 C.3     0  <0>0        0.0260
      5  C3         7.1520   34.5760   56.3180 C.2     0  <0>0       -0.0324
      6  C4         6.9000   36.0540   56.3900 C.3     0  <0>0        0.0507
      7  C5         7.4520   36.6200   57.7000 C.3     0  <0>0        0.0068
      8  C6         8.8930   36.1240   57.8680 C.3     0  <0>0        0.0049
      9  C20        5.3930   36.3150   56.3200 C.3     0  <0>0        0.1414
     10  O2         4.7710   35.8330   57.5140 O.3     0  <0>0       -0.3816
     11  H27        5.1000   34.8810   57.9590 H       0  <0>0        0.2105
     12  C17        7.4360   38.1490   57.6460 C.3     0  <0>0        0.0004
     13  C18        7.4060   38.7090   59.0690 C.3     0  <0>0        0.0000
     14  C19        8.6910   38.6470   56.9280 C.3     0  <0>0        0.0000
     15  C9         9.1750   34.9380   60.5390 C.2     0  <0>0        0.2230
     16  O1         8.7610   35.8420   61.2310 O.2     0  <0>0       -0.2751
     17  N1        10.4330   34.4810   60.7070 N.am    0  <0>0       -0.3004
     18  H12       10.8090   33.6610   60.0790 H       0  <0>0        0.1497
     19  C10       11.2970   35.0770   61.7280 C.3     0  <0>0        0.1165
     20  C11       12.2020   34.0180   62.3010 C.ar    0  <0>0        0.0019
     21  C16       11.6680   32.8300   62.7650 C.ar    0  <0>0        0.0272
     22  C15       12.4990   31.8560   63.2920 C.ar    0  <0>0        0.1421
     23  C14       13.8650   32.0700   63.3530 C.ar    0  <0>0        0.0592
     24  F1        11.9770   30.6950   63.7460 F       0  <0>0       -0.2041
     25  C13       14.4000   33.2600   62.8870 C.ar    0  <0>0        0.1421
     26  C12       13.5660   34.2310   62.3560 C.ar    0  <0>0        0.0272
     27  F2        15.7320   33.4710   62.9460 F       0  <0>0       -0.2041
@<TRIPOS>BOND
     1     5     6    1
     2     5     3    2
     3     9     6    1
     4     9    10    1
     5     6     7    1
     6     4     3    1
     7    14    12    1
     8     3     2    1
     9    10    11    1
    10    12     7    1
    11    12    13    1
    12     7     8    1
    13     8     2    1
    14     2     1    1
    15     1    15    1
    16    18    17    1
    17    15    17   am
    18    15    16    2
    19    17    19    1
    20    19    20    1
    21    20    26   ar
    22    20    21   ar
    23    26    25   ar
    24    21    22   ar
    25    25    27    1
    26    25    23   ar
    27    22    23   ar
    28    22    24    1
