@<TRIPOS>MOLECULE
ZINC36573961_replica-1.pdb
 25 25 0 0 0
SMALL
GASTEIGER

@<TRIPOS>ATOM
      1  C6        -1.4050   29.2400   54.9360 C.3     0  <0>0        0.1742
      2  C5        -0.9960   28.6450   53.6140 C.2     0  <0>0       -0.0020
      3  C4        -1.8970   28.4170   52.6910 C.2     0  <0>0       -0.0286
      4  C3        -1.4880   27.8210   51.3690 C.3     0  <0>0        0.0258
      5  C2        -0.4790   26.6960   51.6070 C.3     0  <0>0        0.0047
      6  C1        -1.1650   25.3440   51.4020 C.3     0  <0>0        0.0004
      7  C7        -0.6740   30.5420   55.1490 C.2     0  <0>0        0.2448
      8  O1        -0.4580   31.2770   54.2090 O.2     0  <0>0       -0.2729
      9  N1        -0.2610   30.8880   56.3850 N.am    0  <0>0       -0.3044
     10  H11       -0.4350   30.3000   57.1360 H       0  <0>0        0.1494
     11  C8         0.4480   32.1530   56.5920 C.3     0  <0>0        0.0716
     12  C13       -0.1920   32.9130   57.7550 C.3     0  <0>0        0.0196
     13  C12        0.5490   34.2330   57.9710 C.3     0  <0>0        0.0017
     14  C11        2.0160   33.9470   58.2950 C.3     0  <0>0        0.0001
     15  C10        2.6570   33.1870   57.1330 C.3     0  <0>0        0.0017
     16  C9         1.9160   31.8670   56.9160 C.3     0  <0>0        0.0196
     17  N2        -1.0690   28.3100   56.0160 N.am    0  <0>0       -0.2697
     18  C17       -1.9870   28.0040   56.9540 C.2     0  <0>0        0.2262
     19  O2        -3.0940   28.4990   56.9030 O.2     0  <0>0       -0.2749
     20  C14        0.2670   27.7120   56.0780 C.3     0  <0>0        0.0941
     21  C15        0.3620   26.5700   55.0640 C.3     0  <0>0        0.0215
     22  C16        0.4710   25.2360   55.8060 C.3     0  <0>0        0.0018
     23  C18       -1.6420   27.0480   58.0660 C.3     0  <0>0        0.0853
     24  C19       -2.0500   27.6570   59.4090 C.3     0  <0>0        0.0096
     25  C20       -0.9310   28.5700   59.9150 C.3     0  <0>0        0.0005
@<TRIPOS>BOND
     1     4     5    1
     2     4     3    1
     3     6     5    1
     4     3     2    2
     5     2     1    1
     6     8     7    2
     7     1     7    1
     8     1    17    1
     9    21    22    1
    10    21    20    1
    11     7     9   am
    12    17    20    1
    13    17    18   am
    14     9    11    1
    15     9    10    1
    16    11    16    1
    17    11    12    1
    18    19    18    2
    19    16    15    1
    20    18    23    1
    21    15    14    1
    22    12    13    1
    23    13    14    1
    24    23    24    1
    25    24    25    1
