@<TRIPOS>MOLECULE
ZINC49403583_replica-1.pdb
 24 25 0 0 0
SMALL
GASTEIGER

@<TRIPOS>ATOM
      1  N2         0.3380   31.2610   57.7020 N.ar    0  <0>0       -0.2691
      2  C7        -0.2620   30.2850   58.6250 C.ar    0  <0>0        0.0993
      3  C8        -0.6240   29.0940   57.7170 C.ar    0  <0>0        0.1031
      4  N3        -0.1900   29.5240   56.3800 N.ar    0  <0>0       -0.2574
      5  C9         0.3330   30.7550   56.4620 C.ar    0  <0>0        0.3359
      6  O2         0.7690   31.3550   55.4990 O.2     0  <0>0       -0.2459
      7  C6         0.8530   32.5800   58.0780 C.3     0  <0>0        0.1954
      8  C5         1.3340   32.5430   59.5050 C.2     0  <0>0        0.2457
      9  N1         0.5380   32.9920   60.4960 N.am    0  <0>0       -0.3028
     10  H10       -0.3440   33.3390   60.2910 H       0  <0>0        0.1495
     11  O1         2.4370   32.1090   59.7630 O.2     0  <0>0       -0.2730
     12  C4         1.0060   32.9560   61.8840 C.3     0  <0>0        0.0894
     13  C3        -0.1370   32.5070   62.7960 C.3     0  <0>0        0.0212
     14  C2        -0.4300   31.0240   62.5560 C.3     0  <0>0        0.0017
     15  C1        -1.2640   30.4750   63.7150 C.3     0  <0>0        0.0001
     16  C10       -0.3090   28.7700   55.2080 C.ar    0  <0>0        0.0683
     17  C15        0.4400   27.6130   55.0440 C.ar    0  <0>0        0.0173
     18  C14        0.3160   26.8680   53.8880 C.ar    0  <0>0       -0.0028
     19  C13       -0.5460   27.2800   52.8880 C.ar    0  <0>0       -0.0224
     20  C12       -1.2910   28.4340   53.0450 C.ar    0  <0>0       -0.0028
     21  C11       -1.1740   29.1810   54.2020 C.ar    0  <0>0        0.0173
     22  C16       -0.6760   26.4680   51.6250 C.3     0  <0>0        0.0224
     23  C17       -0.7000   24.9790   51.9770 C.3     0  <0>0        0.0047
     24  C18       -1.9730   26.8440   50.9070 C.3     0  <0>0        0.0047
@<TRIPOS>BOND
     1    24    22    1
     2    22    23    1
     3    22    19    1
     4    19    20   ar
     5    19    18   ar
     6    20    21   ar
     7    18    17   ar
     8    21    16   ar
     9    17    16   ar
    10    16     4    1
    11     6     5    2
    12     4     5   ar
    13     4     3   ar
    14     5     1   ar
    15     1     7    1
    16     1     2   ar
    17     3     2   ar
    18     7     8    1
    19     8    11    2
    20     8     9   am
    21    10     9    1
    22     9    12    1
    23    12    13    1
    24    14    13    1
    25    14    15    1
