@<TRIPOS>MOLECULE
ZINC04181097_replica-1.pdb
 24 29 0 0 0
SMALL
GASTEIGER

@<TRIPOS>ATOM
      1  N1         9.7750   35.9470   60.7670 N.am    0  <0>0       -0.2299
      2  C3         8.6450   36.5060   61.3160 C.2     0  <0>0        0.2316
      3  O1         8.5600   37.1550   62.3360 O.2     0  <0>0       -0.2745
      4  C4         7.5370   36.1350   60.3670 C.3     0  <0>0        0.0897
      5  C5         6.4140   37.1030   59.9970 C.3     0  <0>0        0.0268
      6  C6         6.8850   38.4300   59.4500 C.3     0  <0>0        0.0048
      7  C7         7.4300   38.2880   58.2520 C.3     0  <0>0        0.0048
      8  C8         7.4740   36.7460   57.9980 C.3     0  <0>0        0.0268
      9  C9         8.4360   36.3700   59.0840 C.3     0  <0>0        0.0897
     10  C10        9.6070   35.6150   59.4330 C.2     0  <0>0        0.2316
     11  O2        10.2720   34.8770   58.7390 O.2     0  <0>0       -0.2745
     12  C11        6.0610   36.4130   58.6320 C.2     0  <0>0       -0.0518
     13  C12        4.9910   35.8000   58.1890 C.2     0  <0>0       -0.0527
     14  C13        3.7360   35.6350   59.0320 C.3     0  <0>0        0.0177
     15  C14        3.4580   34.1310   59.1490 C.3     0  <0>0        0.0040
     16  C15        3.3240   33.5170   57.7570 C.3     0  <0>0        0.0006
     17  C16        2.1600   34.1800   57.0160 C.3     0  <0>0        0.0000
     18  C17        2.4510   35.6770   56.8810 C.3     0  <0>0        0.0006
     19  C18        2.5830   36.2990   58.2700 C.3     0  <0>0        0.0040
     20  C19        3.7340   35.8740   56.0750 C.3     0  <0>0        0.0040
     21  C20        4.9070   35.2070   56.7910 C.3     0  <0>0        0.0177
     22  C21        4.6100   33.7060   56.9550 C.3     0  <0>0        0.0040
     23  C2        11.0180   35.7310   61.5100 C.3     0  <0>0        0.1009
     24  C1        11.1700   34.2420   61.8280 C.3     0  <0>0        0.0237
@<TRIPOS>BOND
     1    20    21    1
     2    20    18    1
     3    21    22    1
     4    21    13    1
     5    18    17    1
     6    18    19    1
     7    22    16    1
     8    17    16    1
     9    16    15    1
    10     8     7    1
    11     8    12    1
    12     8     9    1
    13    13    12    2
    14    13    14    1
    15     7     6    1
    16    19    14    1
    17    12     5    1
    18    11    10    2
    19    14    15    1
    20     9    10    1
    21     9     4    1
    22    10     1   am
    23     6     5    1
    24     5     4    1
    25     4     2    1
    26     1     2   am
    27     1    23    1
    28     2     3    2
    29    23    24    1
