@<TRIPOS>MOLECULE
ZINC66861835_replica-1.pdb
 27 29 0 0 0
SMALL
GASTEIGER

@<TRIPOS>ATOM
      1  C8         0.4170   31.0760   55.5710 C.2     0  <0>0        0.2429
      2  O1         0.4780   30.1770   56.3830 O.2     0  <0>0       -0.2732
      3  N2         1.2530   32.1270   55.6670 N.am    0  <0>0       -0.2968
      4  H9         1.2060   32.8470   55.0170 H       0  <0>0        0.1500
      5  C9         2.2360   32.1860   56.7510 C.3     0  <0>0        0.1230
      6  C10        1.6410   32.9090   57.9320 C.ar    0  <0>0        0.0003
      7  C15        1.4250   32.2340   59.1190 C.ar    0  <0>0       -0.0000
      8  C14        0.8830   32.8980   60.2030 C.ar    0  <0>0        0.0294
      9  C13        0.5460   34.2360   60.0970 C.ar    0  <0>0        0.1401
     10  C12        0.7570   34.9100   58.9060 C.ar    0  <0>0        0.0294
     11  F1         0.0110   34.8840   61.1550 F       0  <0>0       -0.2042
     12  C11        1.3040   34.2460   57.8250 C.ar    0  <0>0       -0.0000
     13  C16        3.4640   32.9220   56.2780 C.ar    0  <0>0        0.0292
     14  S1         5.1420   32.8100   56.8760 S.2     0  <0>0       -0.0888
     15  C19        5.8840   33.9950   55.7650 C.ar    0  <0>0        0.0352
     16  C18        4.8190   34.3950   55.0300 C.ar    0  <0>0        0.0072
     17  C17        3.5780   33.8460   55.2930 C.ar    0  <0>0        0.0046
     18  C7        -0.5930   31.0160   54.4550 C.3     0  <0>0        0.1737
     19  N1        -1.3680   29.7770   54.5630 N.pl3   0  <0>0       -0.3235
     20  H6        -1.9970   29.6600   55.2920 H       0  <0>0        0.1473
     21  C5        -1.2000   28.7630   53.6150 C.ar    0  <0>0        0.0728
     22  C4        -1.8460   28.8430   52.3860 C.ar    0  <0>0        0.1531
     23  C3        -1.6770   27.8370   51.4520 C.ar    0  <0>0        0.0309
     24  F2        -2.6370   29.9010   52.1060 F       0  <0>0       -0.2029
     25  C2        -0.8670   26.7540   51.7390 C.ar    0  <0>0        0.0024
     26  C1        -0.2240   26.6720   52.9610 C.ar    0  <0>0        0.0014
     27  C6        -0.3880   27.6730   53.8990 C.ar    0  <0>0        0.0166
@<TRIPOS>BOND
     1    23    25   ar
     2    23    22   ar
     3    25    26   ar
     4    24    22    1
     5    22    21   ar
     6    26    27   ar
     7    21    27   ar
     8    21    19    1
     9    18    19    1
    10    18     1    1
    11    19    20    1
    12     4     3    1
    13    16    17   ar
    14    16    15   ar
    15    17    13   ar
    16     1     3   am
    17     1     2    2
    18     3     5    1
    19    15    14   ar
    20    13     5    1
    21    13    14   ar
    22     5     6    1
    23    12     6   ar
    24    12    10   ar
    25     6     7   ar
    26    10     9   ar
    27     7     8   ar
    28     9     8   ar
    29     9    11    1
