@<TRIPOS>MOLECULE
ZINC62771800_replica-1.pdb
 22 23 0 0 0
SMALL
GASTEIGER

@<TRIPOS>ATOM
      1  C1        12.5450   34.5200   62.7700 C.3     0  <0>0        0.0311
      2  C2        11.4860   35.0760   61.8540 C.ar    0  <0>0       -0.0188
      3  C3        11.0550   36.3800   62.0090 C.ar    0  <0>0       -0.0028
      4  C4        10.0830   36.8960   61.1710 C.ar    0  <0>0        0.0171
      5  C5         9.5380   36.1030   60.1720 C.ar    0  <0>0        0.0790
      6  C6         9.9730   34.7880   60.0160 C.ar    0  <0>0        0.1513
      7  C7        10.9510   34.2810   60.8560 C.ar    0  <0>0        0.0339
      8  N1         8.5540   36.6210   59.3230 N.pl3   0  <0>0       -0.3313
      9  H15        8.1120   36.0430   58.6820 H       0  <0>0        0.1469
     10  C11        8.1930   38.0390   59.4010 C.3     0  <0>0        0.0767
     11  C12        6.6780   38.1700   59.5740 C.3     0  <0>0        0.0216
     12  C13        8.6230   38.7470   58.1140 C.3     0  <0>0        0.0839
     13  C14        8.1830   37.9360   56.9240 C.ar    0  <0>0        0.1247
     14  O3         8.6490   36.7240   56.5830 O.2     0  <0>0       -0.4546
     15  C17        8.0290   36.3010   55.4690 C.ar    0  <0>0        0.1791
     16  C16        7.1610   37.2530   55.0800 C.ar    0  <0>0        0.0434
     17  C15        7.2590   38.3060   56.0170 C.ar    0  <0>0        0.0362
     18  O1         9.4420   34.0060   59.0380 O.3     0  <0>0       -0.4715
     19  C8         8.6550   32.8890   59.4580 C.3     0  <0>0        0.2374
     20  C9         7.1700   33.2380   59.3360 C.3     0  <0>0        0.1894
     21  O2         6.9900   34.1950   58.2910 O.3     0  <0>0       -0.3471
     22  C10        5.6220   34.4970   58.0080 C.3     0  <0>0        0.1743
@<TRIPOS>BOND
     1    16    15   ar
     2    16    17   ar
     3    15    14   ar
     4    17    13   ar
     5    14    13   ar
     6    13    12    1
     7    22    21    1
     8    12    10    1
     9    21    20    1
    10     9     8    1
    11    18    19    1
    12    18     6    1
    13     8    10    1
    14     8     5    1
    15    20    19    1
    16    10    11    1
    17     6     5   ar
    18     6     7   ar
    19     5     4   ar
    20     7     2   ar
    21     4     3   ar
    22     2     3   ar
    23     2     1    1
