@<TRIPOS>MOLECULE
ZINC07145224_replica-1.pdb
 22 22 0 0 0
SMALL
GASTEIGER

@<TRIPOS>ATOM
      1  C7        10.6160   35.7200   60.9760 C.ar    0  <0>0        0.0757
      2  C8         9.8100   36.8430   61.1940 C.ar    0  <0>0        0.0069
      3  C9         8.8570   37.1870   60.2780 C.ar    0  <0>0        0.0066
      4  C10        8.6860   36.4200   59.1280 C.ar    0  <0>0        0.0328
      5  C11        9.4820   35.2970   58.9100 C.ar    0  <0>0        0.0066
      6  C12       10.4410   34.9530   59.8190 C.ar    0  <0>0        0.0069
      7  C6        11.6450   35.3470   61.9610 C.2     0  <0>0        0.3415
      8  O3        11.8190   36.0340   62.9480 O.2     0  <0>0       -0.2449
      9  O2        12.3950   34.2440   61.7670 O.3     0  <0>0       -0.4397
     10  C4        12.9670   33.6210   62.9470 C.3     0  <0>0        0.2443
     11  C5        14.4910   33.5830   62.8160 C.3     0  <0>0        0.0575
     12  C3        12.4400   32.2140   63.0790 C.2     0  <0>0        0.2628
     13  N1        13.2920   31.1940   63.2960 N.am    0  <0>0       -0.3014
     14  H7        14.2440   31.3640   63.3690 H       0  <0>0        0.1495
     15  O1        11.2490   32.0020   62.9880 O.2     0  <0>0       -0.2712
     16  C2        12.7800   29.8260   63.4240 C.3     0  <0>0        0.0896
     17  C1        12.5380   29.5090   64.9010 C.3     0  <0>0        0.0230
     18  S1         7.4540   36.8670   57.9490 S.3     0  <0>0       -0.0144
     19  C13        7.8340   38.5950   57.5510 C.3     0  <0>0        0.4477
     20  F1         7.3130   39.4290   58.5460 F       0  <0>0       -0.1600
     21  F2         7.2610   38.9270   56.3180 F       0  <0>0       -0.1600
     22  F3         9.2220   38.7640   57.4810 F       0  <0>0       -0.1600
@<TRIPOS>BOND
     1    21    19    1
     2    22    19    1
     3    19    18    1
     4    19    20    1
     5    18     4    1
     6     5     4   ar
     7     5     6   ar
     8     4     3   ar
     9     6     1   ar
    10     3     2   ar
    11     1     2   ar
    12     1     7    1
    13     9     7    1
    14     9    10    1
    15     7     8    2
    16    11    10    1
    17    10    12    1
    18    15    12    2
    19    12    13   am
    20    13    14    1
    21    13    16    1
    22    16    17    1
