@<TRIPOS>MOLECULE
ZINC32216341_replica-1.pdb
 23 24 0 0 0
SMALL
GASTEIGER

@<TRIPOS>ATOM
      1  C8         0.6500   31.4210   55.8610 C.2     0  <0>0        0.2425
      2  O1        -0.4690   31.7950   56.1370 O.2     0  <0>0       -0.2733
      3  N2         0.8250   30.3830   55.0190 N.am    0  <0>0       -0.3026
      4  H7         1.8420   30.0430   54.7690 H       0  <0>0        0.1495
      5  C7         1.8460   32.1150   56.4600 C.3     0  <0>0        0.1736
      6  N1         2.4350   33.0170   55.4660 N.pl3   0  <0>0       -0.3253
      7  H4         2.1270   32.9500   54.4120 H       0  <0>0        0.1473
      8  C6         3.3860   33.9640   55.8580 C.ar    0  <0>0        0.0460
      9  C1         2.9800   35.2220   56.2830 C.ar    0  <0>0        0.0167
     10  C2         3.9210   36.1550   56.6750 C.ar    0  <0>0        0.0318
     11  C3         5.2690   35.8400   56.6340 C.ar    0  <0>0        0.1507
     12  C4         5.6770   34.5870   56.2050 C.ar    0  <0>0        0.0863
     13  F1         6.1860   36.7560   57.0140 F       0  <0>0       -0.2033
     14  C5         4.7380   33.6500   55.8180 C.ar    0  <0>0        0.0280
     15 Cl          7.3670   34.1950   56.1570 Cl      0  <0>0       -0.0799
     16  C9        -0.3360   29.7080   54.4370 C.3     0  <0>0        0.0938
     17  C10       -0.2120   28.1990   54.6540 C.3     0  <0>0        0.0429
     18  C11       -0.5660   27.4770   53.3790 C.2     0  <0>0       -0.0468
     19  C16       -1.4120   28.2010   52.3720 C.3     0  <0>0        0.0218
     20  C15       -1.3110   27.5120   51.0080 C.3     0  <0>0        0.0047
     21  C14       -1.5570   26.0110   51.2070 C.3     0  <0>0        0.0050
     22  C13       -0.3890   25.4300   52.0070 C.3     0  <0>0        0.0254
     23  C12       -0.1270   26.2700   53.2230 C.2     0  <0>0       -0.0346
@<TRIPOS>BOND
     1    20    21    1
     2    20    19    1
     3    21    22    1
     4    22    23    1
     5    19    18    1
     6    23    18    2
     7    18    17    1
     8     7     6    1
     9    16    17    1
    10    16     3    1
    11     4     3    1
    12     3     1   am
    13     6     8    1
    14     6     5    1
    15    14     8   ar
    16    14    12   ar
    17     8     9   ar
    18     1     2    2
    19     1     5    1
    20    15    12    1
    21    12    11   ar
    22     9    10   ar
    23    11    10   ar
    24    11    13    1
