@<TRIPOS>MOLECULE
ZINC00430182_replica-1.pdb
 21 23 0 0 0
SMALL
GASTEIGER

@<TRIPOS>ATOM
      1  C8        -0.5990   30.9300   55.1550 C.2     0  <0>0        0.1923
      2  C9        -2.0290   30.6090   55.3280 C.2     0  <0>0        0.3738
      3  O1        -2.8610   31.2510   55.9400 O.2     0  <0>0       -0.2419
      4  O2        -2.2130   29.4500   54.6610 O.3     0  <0>0       -0.3911
      5  C10       -1.0390   29.0690   54.1210 C.2     0  <0>0        0.2843
      6  N1        -0.0890   29.9210   54.3930 N.2     0  <0>0       -0.3648
      7  C7         0.0770   32.0230   55.6530 C.3     0  <0>0        0.0922
      8  C6         0.2710   32.1680   57.0990 C.ar    0  <0>0       -0.0149
      9  C1         0.2290   33.4380   57.6920 C.ar    0  <0>0       -0.0033
     10  C2         0.4170   33.5660   59.0500 C.ar    0  <0>0        0.0064
     11  C3         0.6370   32.4440   59.8320 C.ar    0  <0>0        0.0345
     12  C4         0.6760   31.1840   59.2560 C.ar    0  <0>0        0.0064
     13 Br          0.8870   32.6320   61.6970 Br      0  <0>0       -0.0490
     14  C5         0.4940   31.0390   57.8980 C.ar    0  <0>0       -0.0033
     15  C11       -0.8540   27.8450   53.3180 C.ar    0  <0>0        0.0666
     16  C16       -1.3880   27.7630   52.0290 C.ar    0  <0>0        0.0081
     17  C15       -1.2110   26.6180   51.2840 C.ar    0  <0>0        0.0298
     18  C14       -0.5030   25.5480   51.8090 C.ar    0  <0>0        0.1401
     19  C13        0.0290   25.6230   53.0880 C.ar    0  <0>0        0.0298
     20  F1        -0.3330   24.4280   51.0730 F       0  <0>0       -0.2042
     21  C12       -0.1370   26.7650   53.8400 C.ar    0  <0>0        0.0081
@<TRIPOS>BOND
     1    20    18    1
     2    17    18   ar
     3    17    16   ar
     4    18    19   ar
     5    16    15   ar
     6    19    21   ar
     7    15    21   ar
     8    15     5    1
     9     5     6    2
    10     5     4    1
    11     6     1    2
    12     4     2    1
    13     1     2    1
    14     1     7    1
    15     2     3    2
    16     7     8    1
    17     8     9   ar
    18     8    14   ar
    19     9    10   ar
    20    14    12   ar
    21    10    11   ar
    22    12    11   ar
    23    11    13    1
