@<TRIPOS>MOLECULE
ZINC49064467_replica-1.pdb
 20 21 0 0 0
SMALL
GASTEIGER

@<TRIPOS>ATOM
      1  C2         8.4930   36.9070   59.0510 C.ar    0  <0>0        0.0548
      2  C3         8.8250   38.2350   58.8100 C.ar    0  <0>0        0.0150
      3  C4         8.1930   38.9390   57.8030 C.ar    0  <0>0        0.0020
      4  C5         7.2250   38.3290   57.0310 C.ar    0  <0>0        0.0104
      5  C6         6.8830   36.9950   57.2650 C.ar    0  <0>0        0.0697
      6  C7         7.5270   36.2830   58.2780 C.ar    0  <0>0        0.0252
      7  C8         5.8800   36.3600   56.4650 C.1     0  <0>0        0.1005
      8  N2         5.0830   35.8560   55.8320 N.1     0  <0>0       -0.1908
      9  N1         9.1370   36.1990   60.0710 N.am    0  <0>0       -0.2534
     10  C1         8.9140   36.5680   61.4720 C.3     0  <0>0        0.1203
     11  C9         9.9620   35.1770   59.7670 C.2     0  <0>0        0.2532
     12  O1        10.2080   34.9210   58.6050 O.2     0  <0>0       -0.2696
     13  C10       10.5650   34.3700   60.8460 C.ar    0  <0>0        0.0594
     14  C15        9.9990   33.1430   61.2030 C.ar    0  <0>0        0.0367
     15  C14       10.5720   32.3900   62.2070 C.ar    0  <0>0        0.0356
     16  I1         8.2920   32.4450   60.2100 I       0  <0>0       -0.0423
     17  C13       11.6970   32.8540   62.8690 C.ar    0  <0>0        0.1406
     18  C12       12.2590   34.0730   62.5220 C.ar    0  <0>0        0.0298
     19  F1        12.2500   32.1150   63.8560 F       0  <0>0       -0.2042
     20  C11       11.7000   34.8310   61.5170 C.ar    0  <0>0        0.0073
@<TRIPOS>BOND
     1     8     7    3
     2     7     5    1
     3     4     5   ar
     4     4     3   ar
     5     5     6   ar
     6     3     2   ar
     7     6     1   ar
     8    12    11    2
     9     2     1   ar
    10     1     9    1
    11    11     9   am
    12    11    13    1
    13     9    10    1
    14    16    14    1
    15    13    14   ar
    16    13    20   ar
    17    14    15   ar
    18    20    18   ar
    19    15    17   ar
    20    18    17   ar
    21    17    19    1
