@<TRIPOS>MOLECULE
ZINC58238439_replica-1.pdb
 21 22 0 0 0
SMALL
GASTEIGER

@<TRIPOS>ATOM
      1  C1        -2.4530   27.7400   57.7480 C.ar    0  <0>0       -0.0003
      2  C2        -1.2320   27.8230   58.3950 C.ar    0  <0>0        0.0000
      3  C3        -0.3700   28.8620   58.1180 C.ar    0  <0>0        0.0015
      4  C4        -0.7310   29.8350   57.1830 C.ar    0  <0>0        0.0165
      5  C5        -1.9640   29.7450   56.5340 C.ar    0  <0>0       -0.0096
      6  C6        -2.8170   28.7000   56.8200 C.ar    0  <0>0       -0.0034
      7  C7        -2.3620   30.7900   55.5230 C.3     0  <0>0        0.0841
      8  S1        -2.4930   30.0270   53.8830 S.3     0  <0>0       -0.1306
      9  C8        -0.8240   29.3990   53.5550 C.3     0  <0>0        0.0849
     10  C9        -0.9160   28.0820   52.8300 C.ar    0  <0>0       -0.0007
     11  C14       -0.2760   26.9660   53.3390 C.ar    0  <0>0        0.0545
     12  C13       -0.3650   25.7550   52.6750 C.ar    0  <0>0        0.0111
     13 Cl          0.6330   27.0830   54.8130 Cl      0  <0>0       -0.0825
     14  C12       -1.0840   25.6640   51.4990 C.ar    0  <0>0        0.0008
     15  C11       -1.7200   26.7810   50.9880 C.ar    0  <0>0       -0.0002
     16  C10       -1.6360   27.9890   51.6530 C.ar    0  <0>0       -0.0026
     17  C15        0.1870   30.9520   56.8820 C.2     0  <0>0        0.0778
     18  S2         0.0530   32.4250   57.7430 S.2     0  <0>0       -0.0352
     19  N1         1.1300   30.8100   55.9300 N.am    0  <0>0       -0.3517
     20  H13        1.2070   29.9750   55.4420 H       0  <0>0        0.1428
     21  H14        1.7330   31.5440   55.7330 H       0  <0>0        0.1428
@<TRIPOS>BOND
     1    15    14   ar
     2    15    16   ar
     3    14    12   ar
     4    16    10   ar
     5    12    11   ar
     6    10    11   ar
     7    10     9    1
     8    11    13    1
     9     9     8    1
    10     8     7    1
    11    20    19    1
    12     7     5    1
    13    21    19    1
    14    19    17    1
    15     5     6   ar
    16     5     4   ar
    17     6     1   ar
    18    17     4    1
    19    17    18    2
    20     4     3   ar
    21     1     2   ar
    22     3     2   ar
