@<TRIPOS>MOLECULE
ZINC06749322_replica-1.pdb
 22 23 0 0 0
SMALL
GASTEIGER

@<TRIPOS>ATOM
      1  C6         7.7220   35.9030   56.9710 C.2     0  <0>0        0.0906
      2  C7         8.5500   36.6010   57.8660 C.2     0  <0>0        0.0586
      3  C8         8.3390   37.8700   57.1470 C.2     0  <0>0        0.2367
      4  O1         8.7150   39.0190   57.2780 O.2     0  <0>0       -0.2831
      5  C9         7.4650   37.1350   56.1920 C.2     0  <0>0        0.2473
      6  O2         6.8170   37.4220   55.2050 O.2     0  <0>0       -0.2818
      7  C10        9.3230   36.2150   59.0620 C.ar    0  <0>0        0.0045
      8  C15        9.9490   34.9660   59.1210 C.ar    0  <0>0       -0.0002
      9  C14       10.6690   34.6130   60.2420 C.ar    0  <0>0       -0.0043
     10  C13       10.7740   35.4910   61.3070 C.ar    0  <0>0       -0.0225
     11  C12       10.1590   36.7280   61.2560 C.ar    0  <0>0       -0.0043
     12  C11        9.4380   37.0980   60.1390 C.ar    0  <0>0       -0.0002
     13  C16       11.5640   35.0960   62.5280 C.3     0  <0>0        0.0224
     14  C17       12.8130   34.3220   62.1000 C.3     0  <0>0        0.0047
     15  C18       11.9810   36.3540   63.2940 C.3     0  <0>0        0.0047
     16  N1         7.3140   34.6030   56.8630 N.pl3   0  <0>0       -0.3300
     17  H12        7.8270   33.7540   56.3890 H       0  <0>0        0.1469
     18  C5         6.0000   34.4080   57.4930 C.3     0  <0>0        0.0871
     19  C4         6.1830   34.1920   58.9960 C.3     0  <0>0        0.0212
     20  C2         5.2030   35.0820   59.7630 C.3     0  <0>0        0.0017
     21  C1         5.9790   35.9950   60.7140 C.3     0  <0>0        0.0001
     22  C3         4.4070   35.9350   58.7720 C.3     0  <0>0        0.0001
@<TRIPOS>BOND
     1     6     5    2
     2     5     1    1
     3     5     3    1
     4    17    16    1
     5    16     1    1
     6    16    18    1
     7     1     2    2
     8     3     4    2
     9     3     2    1
    10    18    19    1
    11     2     7    1
    12    22    20    1
    13    19    20    1
    14     7     8   ar
    15     7    12   ar
    16     8     9   ar
    17    20    21    1
    18    12    11   ar
    19     9    10   ar
    20    11    10   ar
    21    10    13    1
    22    14    13    1
    23    13    15    1
