@<TRIPOS>MOLECULE
ZINC05605936_replica-1.pdb
 20 21 0 0 0
SMALL
GASTEIGER

@<TRIPOS>ATOM
      1  C7         9.0320   34.9120   59.0670 C.3     0  <0>0        0.0675
      2  C8         9.7990   35.2540   60.3140 C.3     0  <0>0        0.1599
      3  C9         9.8930   36.5210   60.7560 C.2     0  <0>0        0.1807
      4  N1         9.2980   37.5490   60.0690 N.2     0  <0>0       -0.3858
      5  C10        8.9150   37.3760   58.7630 C.2     0  <0>0        0.1807
      6  C11        8.7830   36.1420   58.2430 C.3     0  <0>0        0.1599
      7  C12        8.3950   35.9990   56.8710 C.1     0  <0>0        0.0806
      8  N2         8.0870   35.8850   55.7840 N.1     0  <0>0       -0.1954
      9 Cl          8.5990   38.7640   57.7700 Cl      0  <0>0       -0.0514
     10 Cl         10.7770   36.8600   62.2110 Cl      0  <0>0       -0.0514
     11  C13       10.4400   34.2070   61.0520 C.1     0  <0>0        0.0806
     12  N3        10.9480   33.3760   61.6370 N.1     0  <0>0       -0.1954
     13  C4         7.7120   34.2920   59.4470 C.ar    0  <0>0        0.0016
     14  C3         7.3630   33.0500   58.9490 C.ar    0  <0>0        0.0546
     15  C2         6.1500   32.4820   59.2970 C.ar    0  <0>0        0.0111
     16 Cl          8.4440   32.2030   57.8880 Cl      0  <0>0       -0.0825
     17  C1         5.2880   33.1560   60.1420 C.ar    0  <0>0        0.0017
     18  C6         5.6370   34.3980   60.6390 C.ar    0  <0>0        0.0111
     19  C5         6.8520   34.9640   60.2960 C.ar    0  <0>0        0.0546
     20 Cl          7.2920   36.5210   60.9260 Cl      0  <0>0       -0.0825
@<TRIPOS>BOND
     1     8     7    3
     2     7     6    1
     3     9     5    1
     4    16    14    1
     5     6     5    1
     6     6     1    1
     7     5     4    2
     8    14    15   ar
     9    14    13   ar
    10     1    13    1
    11     1     2    1
    12    15    17   ar
    13    13    19   ar
    14     4     3    2
    15    17    18   ar
    16    19    18   ar
    17    19    20    1
    18     2     3    1
    19     2    11    1
    20     3    10    1
    21    11    12    3
