@<TRIPOS>MOLECULE
ZINC29131272_replica-1.pdb
 24 24 0 0 0
SMALL
GASTEIGER

@<TRIPOS>ATOM
      1  C4         6.9980   34.2370   57.4930 C.2     0  <0>0        0.0426
      2  C5         8.2630   34.0930   58.0610 C.2     0  <0>0        0.1249
      3  N1         8.7420   32.9630   58.5170 N.2     0  <0>0       -0.3386
      4  C6         8.0550   31.8190   58.4820 C.1     0  <0>0        0.2110
      5  C7         6.6620   31.8370   57.8880 C.3     0  <0>0        0.2469
      6  C8         6.1580   33.1750   57.3810 C.2     0  <0>0        0.2113
      7  O1         4.9330   33.3040   56.8380 O.2     0  <0>0       -0.2879
      8  C9         5.6850   31.3420   58.9560 C.3     0  <0>0        0.0560
      9  O3         8.5350   30.7900   58.9160 O.2     0  <0>0       -0.2114
     10  C10        9.1350   35.3190   58.1570 C.3     0  <0>0        0.0851
     11  C11        9.9750   35.2410   59.4050 C.2     0  <0>0       -0.0268
     12  C12        9.9320   36.2110   60.2860 C.2     0  <0>0       -0.0434
     13  C13        9.1530   37.4660   59.9860 C.3     0  <0>0        0.0264
     14  C14       10.6600   36.0700   61.5970 C.3     0  <0>0        0.0473
     15  C15       11.5130   34.8280   61.5670 C.2     0  <0>0       -0.0263
     16  C16       12.4730   34.6720   62.4440 C.2     0  <0>0       -0.0307
     17  C17       13.3260   33.4290   62.4130 C.3     0  <0>0        0.0217
     18  C18       14.6220   33.6800   63.1850 C.3     0  <0>0        0.0047
     19  C19       12.5630   32.2710   63.0600 C.3     0  <0>0        0.0047
     20  C3         6.5540   35.5910   57.0020 C.3     0  <0>0        0.0317
     21  C2         6.6550   35.6370   55.4760 C.3     0  <0>0        0.0049
     22  C1         7.6760   36.7020   55.0650 C.3     0  <0>0        0.0004
     23  O2         6.6310   30.9090   56.8020 O.3     0  <0>0       -0.3662
     24  H11        5.7740   30.8520   56.3570 H       0  <0>0        0.2120
@<TRIPOS>BOND
     1    22    21    1
     2    21    20    1
     3    24    23    1
     4    23     5    1
     5     7     6    1
     6    20     1    1
     7     6     1    2
     8     6     5    1
     9     1     2    1
    10     5     4    1
    11     5     8    1
    12     2    10    1
    13     2     3    2
    14    10    11    1
    15     4     3    2
    16     4     9    2
    17    11    12    2
    18    13    12    1
    19    12    14    1
    20    15    14    1
    21    15    16    2
    22    17    16    1
    23    17    19    1
    24    17    18    1
