@<TRIPOS>MOLECULE
ZINC66392163_replica-1.pdb
 25 26 0 0 0
SMALL
GASTEIGER

@<TRIPOS>ATOM
      1  C10        1.1800   29.8270   58.6400 C.3     0  <0>0        0.1880
      2  C11        2.6060   29.6120   58.9340 C.1     0  <0>0        0.0971
      3  N2         3.7070   29.4470   59.1600 N.1     0  <0>0       -0.1938
      4  N1         0.8300   29.1450   57.3900 N.am    0  <0>0       -0.2869
      5  C9        -0.2750   28.3750   57.3300 C.2     0  <0>0        0.2469
      6  O1        -0.9810   28.2480   58.3120 O.2     0  <0>0       -0.2701
      7  H8         1.3940   29.2480   56.6080 H       0  <0>0        0.1509
      8  C8        -0.6240   27.6940   56.0810 C.2     0  <0>0        0.0578
      9  C7        -0.1350   28.1440   54.9080 C.2     0  <0>0        0.0053
     10  C5        -0.4850   27.4610   53.6540 C.ar    0  <0>0        0.0098
     11  C4        -1.3170   28.0940   52.7080 C.ar    0  <0>0        0.0684
     12  C3        -1.6410   27.4320   51.5240 C.ar    0  <0>0        0.0103
     13  C18       -1.8280   29.4080   52.9610 C.1     0  <0>0        0.1004
     14  C2        -1.1470   26.1650   51.2850 C.ar    0  <0>0        0.0007
     15  C1        -0.3290   25.5420   52.2140 C.ar    0  <0>0        0.0000
     16  C6         0.0030   26.1790   53.3920 C.ar    0  <0>0        0.0007
     17  N3        -2.2310   30.4510   53.1620 N.1     0  <0>0       -0.1908
     18  C12        0.9130   31.3040   58.4970 C.ar    0  <0>0        0.0214
     19  C17        0.6770   32.0750   59.6210 C.ar    0  <0>0        0.0668
     20  C16        0.4390   33.4320   59.4900 C.ar    0  <0>0        0.0680
     21 Cl          0.6890   31.3430   61.1950 Cl      0  <0>0       -0.0816
     22  C15        0.4240   34.0130   58.2350 C.ar    0  <0>0        0.0122
     23 Cl          0.1510   34.4040   60.9000 Cl      0  <0>0       -0.0814
     24  C14        0.6540   33.2400   57.1120 C.ar    0  <0>0        0.0007
     25  C13        0.8980   31.8860   57.2440 C.ar    0  <0>0       -0.0007
@<TRIPOS>BOND
     1    14    12   ar
     2    14    15   ar
     3    12    11   ar
     4    15    16   ar
     5    11    13    1
     6    11    10   ar
     7    13    17    3
     8    16    10   ar
     9    10     9    1
    10     9     8    2
    11     8     5    1
    12     7     4    1
    13    24    25   ar
    14    24    22   ar
    15    25    18   ar
    16     5     4   am
    17     5     6    2
    18     4     1    1
    19    22    20   ar
    20    18     1    1
    21    18    19   ar
    22     1     2    1
    23     2     3    3
    24    20    19   ar
    25    20    23    1
    26    19    21    1
