@<TRIPOS>MOLECULE
ZINC37014002_replica-1.pdb
 20 21 0 0 0
SMALL
GASTEIGER

@<TRIPOS>ATOM
      1  C7        10.9680   35.0750   60.8180 C.ar    0  <0>0        0.0407
      2  C8        10.2860   34.7390   59.6570 C.ar    0  <0>0        0.0187
      3  C9         9.3180   35.6030   59.1480 C.ar    0  <0>0        0.0563
      4  C10        9.0410   36.8010   59.8090 C.ar    0  <0>0        0.0045
      5  C11        9.7250   37.1270   60.9620 C.ar    0  <0>0       -0.0029
      6  C12       10.6810   36.2680   61.4700 C.ar    0  <0>0       -0.0087
      7  C13       11.4190   36.6280   62.7340 C.3     0  <0>0        0.0323
      8  N1        11.9390   34.2120   61.3330 N.pl3   0  <0>0       -0.3329
      9  H14       12.8530   34.2640   61.0120 H       0  <0>0        0.1468
     10  C6        11.5760   33.2270   62.3550 C.3     0  <0>0        0.0869
     11  C4        12.8070   32.8910   63.1980 C.3     0  <0>0        0.0195
     12  C5        14.0380   33.5730   62.5970 C.3     0  <0>0        0.0017
     13  C3        13.0190   31.3770   63.2110 C.3     0  <0>0        0.0017
     14  C2        11.8090   30.6960   63.8530 C.3     0  <0>0        0.0001
     15  C1        12.2360   29.3550   64.4540 C.3     0  <0>0        0.0000
     16  C14        8.5880   35.2520   57.9120 C.ar    0  <0>0        0.2501
     17  O1         8.0080   36.1150   57.0530 O.2     0  <0>0       -0.4121
     18  C15        7.4640   35.3690   56.0760 C.ar    0  <0>0        0.3059
     19  N3         7.7070   34.1180   56.3530 N.ar    0  <0>0       -0.1019
     20  N2         8.3780   34.0420   57.4480 N.ar    0  <0>0       -0.1068
@<TRIPOS>BOND
     1    18    19   ar
     2    18    17   ar
     3    19    20   ar
     4    17    16   ar
     5    20    16   ar
     6    16     3    1
     7     3     2   ar
     8     3     4   ar
     9     2     1   ar
    10     4     5   ar
    11     1     8    1
    12     1     6   ar
    13     5     6   ar
    14     9     8    1
    15     8    10    1
    16     6     7    1
    17    10    11    1
    18    12    11    1
    19    11    13    1
    20    13    14    1
    21    14    15    1
