@<TRIPOS>MOLECULE
ZINC35560624_replica-1.pdb
 32 34 0 0 0
SMALL
GASTEIGER

@<TRIPOS>ATOM
      1  C11       -0.2880   30.1790   56.8950 C.3     0  <0>0        0.0582
      2  C10       -0.5900   29.6010   55.5360 C.ar    0  <0>0        0.0005
      3  C7        -0.2060   28.2730   55.0490 C.ar    0  <0>0        0.0130
      4  C6         0.4910   27.2000   55.6070 C.ar    0  <0>0        0.0012
      5  C8        -0.6980   28.1840   53.7350 C.ar    0  <0>0        0.0523
      6  C5         0.6880   26.0650   54.8710 C.ar    0  <0>0       -0.0002
      7  C4         0.2000   25.9700   53.5760 C.ar    0  <0>0       -0.0028
      8  C3        -0.4910   27.0170   53.0070 C.ar    0  <0>0       -0.0066
      9  N1        -1.3280   29.3760   53.4550 N.ar    0  <0>0       -0.3525
     10  H1        -1.7650   29.5930   52.6160 H       0  <0>0        0.1660
     11  C9        -1.2480   30.2100   54.5370 C.ar    0  <0>0        0.0684
     12  C2        -1.0150   26.9010   51.5990 C.3     0  <0>0        0.0278
     13  C1        -1.2230   25.4260   51.2510 C.3     0  <0>0        0.0051
     14  C12       -1.0340   31.5040   57.0620 C.3     0  <0>0        0.0939
     15  C13       -0.0390   32.6300   57.1800 C.2     0  <0>0        0.2231
     16  O1         1.0200   32.5670   56.5920 O.2     0  <0>0       -0.2751
     17  N2        -0.3240   33.7050   57.9410 N.am    0  <0>0       -0.3043
     18  H14       -1.1710   33.7550   58.4110 H       0  <0>0        0.1494
     19  C14        0.6430   34.7990   58.0560 C.3     0  <0>0        0.0893
     20  C15        1.1840   34.8540   59.4860 C.3     0  <0>0        0.0196
     21  C16        0.2300   34.1090   60.4220 C.3     0  <0>0        0.0017
     22  C17        2.5640   34.1940   59.5340 C.3     0  <0>0        0.0017
     23  C18       -0.7350   29.2130   57.9620 C.ar    0  <0>0        0.0191
     24  C23        0.1130   28.9020   59.0130 C.ar    0  <0>0        0.1687
     25  C22       -0.3050   28.0150   60.0010 C.ar    0  <0>0        0.1721
     26  C21       -1.5620   27.4370   59.9210 C.ar    0  <0>0        0.0400
     27  C20       -2.4000   27.7470   58.8660 C.ar    0  <0>0        0.0030
     28  C19       -1.9880   28.6330   57.8890 C.ar    0  <0>0       -0.0007
     29  O2         1.3480   29.4680   59.0830 O.3     0  <0>0       -0.4687
     30  C24        1.4920   30.6080   59.9320 C.3     0  <0>0        0.2526
     31  O3         0.5210   27.7110   61.0370 O.3     0  <0>0       -0.4684
     32  C25       -0.0950   27.2810   62.2520 C.3     0  <0>0        0.2526
@<TRIPOS>BOND
     1    13    12    1
     2    12     8    1
     3    10     9    1
     4     8     7   ar
     5     8     5   ar
     6     9     5   ar
     7     9    11   ar
     8     7     6   ar
     9     5     3   ar
    10    11     2   ar
    11     6     4   ar
    12     3     2   ar
    13     3     4   ar
    14     2     1    1
    15    16    15    2
    16     1    14    1
    17     1    23    1
    18    14    15    1
    19    15    17   am
    20    28    23   ar
    21    28    27   ar
    22    17    19    1
    23    17    18    1
    24    23    24   ar
    25    19    20    1
    26    27    26   ar
    27    24    29    1
    28    24    25   ar
    29    29    30    1
    30    20    22    1
    31    20    21    1
    32    26    25   ar
    33    25    31    1
    34    31    32    1
