@<TRIPOS>MOLECULE
ZINC43198559_replica-1.pdb
 25 26 0 0 0
SMALL
GASTEIGER

@<TRIPOS>ATOM
      1  C1         7.5850   38.2600   58.6950 C.3     0  <0>0        0.0024
      2  C2         7.7020   36.7450   58.5150 C.3     0  <0>0        0.0248
      3  C3         8.6670   36.2650   57.3880 C.3     0  <0>0        0.0024
      4  C4         8.2200   34.8180   57.0810 C.3     0  <0>0        0.0025
      5  C5         7.0270   34.5600   58.0530 C.3     0  <0>0        0.0273
      6  C6         6.3860   35.9910   58.1120 C.3     0  <0>0        0.0044
      7  C7         5.8620   36.4420   56.7480 C.3     0  <0>0        0.0002
      8  C8         5.3110   36.0940   59.1960 C.3     0  <0>0        0.0002
      9  C9         7.6860   34.4570   59.4620 C.3     0  <0>0        0.1145
     10  C10        8.1210   35.9390   59.7830 C.3     0  <0>0        0.1107
     11  C11        9.6370   35.9970   59.9760 C.3     0  <0>0        0.0292
     12  C12        9.9650   36.9130   61.1570 C.3     0  <0>0        0.0025
     13  C13       11.0740   36.2800   62.0010 C.3     0  <0>0        0.0001
     14  C14       11.3770   34.8760   61.4740 C.3     0  <0>0        0.0003
     15  C15       12.1430   34.0860   62.5370 C.3     0  <0>0        0.0047
     16  C16       13.6260   34.0370   62.1650 C.3     0  <0>0        0.0260
     17  C17       14.3340   33.0430   63.0500 C.2     0  <0>0       -0.0261
     18  C18       13.7240   31.9430   63.4170 C.2     0  <0>0       -0.0049
     19  O1         7.4490   36.4450   60.9390 O.3     0  <0>0       -0.3845
     20  H30        6.6780   35.9260   61.2040 H       0  <0>0        0.2103
     21  C19        8.8880   33.5100   59.4220 C.3     0  <0>0        0.0552
     22  C20        8.4460   32.1230   59.8150 C.2     0  <0>0       -0.0236
     23  C21        8.2790   31.2040   58.8970 C.2     0  <0>0       -0.0048
     24  O2         6.7320   34.0130   60.4270 O.3     0  <0>0       -0.3841
     25  H36        5.8750   34.4560   60.3670 H       0  <0>0        0.2103
@<TRIPOS>BOND
     1     7     6    1
     2     4     3    1
     3     4     5    1
     4     3     2    1
     5     5     6    1
     6     5     9    1
     7     6     2    1
     8     6     8    1
     9     2     1    1
    10     2    10    1
    11    23    22    2
    12    21     9    1
    13    21    22    1
    14     9    10    1
    15     9    24    1
    16    10    11    1
    17    10    19    1
    18    11    12    1
    19    25    24    1
    20    19    20    1
    21    12    13    1
    22    14    13    1
    23    14    15    1
    24    16    15    1
    25    16    17    1
    26    17    18    2
