@<TRIPOS>MOLECULE
ZINC27528599_replica-1.pdb
 28 30 0 0 0
SMALL
GASTEIGER

@<TRIPOS>ATOM
      1  C1         8.9580   37.9960   59.5450 C.ar    0  <0>0        0.0010
      2  C2         8.3850   37.2840   58.5070 C.ar    0  <0>0       -0.0025
      3  C3         8.6340   35.9300   58.3740 C.ar    0  <0>0       -0.0014
      4  C4         9.4610   35.2860   59.2740 C.ar    0  <0>0        0.0117
      5  C5        10.0330   35.9970   60.3200 C.ar    0  <0>0        0.0446
      6  C6         9.7810   37.3570   60.4530 C.ar    0  <0>0        0.0143
      7  N1        10.8650   35.3480   61.2360 N.pl3   0  <0>0       -0.3291
      8  H5        11.6760   35.9040   61.7310 H       0  <0>0        0.1471
      9  C7        10.6580   33.9300   61.5370 C.3     0  <0>0        0.1143
     10  C8        11.8820   33.3780   62.2220 C.ar    0  <0>0       -0.0010
     11  C13       11.8290   32.1450   62.8450 C.ar    0  <0>0        0.0215
     12  C12       12.9540   31.6370   63.4680 C.ar    0  <0>0        0.1426
     13  C11       14.1270   32.3670   63.4780 C.ar    0  <0>0        0.0241
     14  C10       14.1800   33.6000   62.8550 C.ar    0  <0>0        0.0014
     15  C9        13.0570   34.1060   62.2280 C.ar    0  <0>0       -0.0025
     16  N2        12.9000   30.3150   64.1290 N.pl3   0  <0>0        0.0577
     17  O1        12.9510   30.2380   65.3440 O.2     0  <0>0       -0.1261
     18  O2        12.8030   29.3010   63.4580 O.2     0  <0>0       -0.1261
     19  C14        8.0080   35.1580   57.2400 C.3     0  <0>0        0.1143
     20  N3         7.1300   36.0440   56.4720 N.pl3   0  <0>0       -0.3291
     21  H14        7.5610   36.7670   55.7640 H       0  <0>0        0.1471
     22  C15        5.7450   35.9710   56.6420 C.ar    0  <0>0        0.0449
     23  C20        4.8980   36.2990   55.5910 C.ar    0  <0>0        0.0148
     24  C19        3.5290   36.2260   55.7600 C.ar    0  <0>0        0.0080
     25  C18        3.0020   35.8270   56.9750 C.ar    0  <0>0        0.0346
     26  C17        3.8430   35.5000   58.0240 C.ar    0  <0>0        0.0080
     27 Br          1.1270   35.7290   57.2030 Br      0  <0>0       -0.0490
     28  C16        5.2130   35.5660   57.8590 C.ar    0  <0>0        0.0148
@<TRIPOS>BOND
     1    23    24   ar
     2    23    22   ar
     3    24    25   ar
     4    21    20    1
     5    20    22    1
     6    20    19    1
     7    22    28   ar
     8    25    27    1
     9    25    26   ar
    10    19     3    1
    11    28    26   ar
    12     3     2   ar
    13     3     4   ar
    14     2     1   ar
    15     4     5   ar
    16     1     6   ar
    17     5     6   ar
    18     5     7    1
    19     7     9    1
    20     7     8    1
    21     9    10    1
    22    10    15   ar
    23    10    11   ar
    24    15    14   ar
    25    11    12   ar
    26    14    13   ar
    27    18    16    2
    28    12    13   ar
    29    12    16    1
    30    16    17    2
