@<TRIPOS>MOLECULE
ZINC07467164_replica-1.pdb
 24 27 0 0 0
SMALL
GASTEIGER

@<TRIPOS>ATOM
      1  C8        -1.6290   29.1910   54.6130 C.ar    0  <0>0        0.1426
      2  C9        -2.4610   30.2540   54.3070 C.ar    0  <0>0        0.0372
      3  C10       -2.9320   30.4070   53.0170 C.ar    0  <0>0        0.0029
      4  C11       -2.5670   29.5010   52.0420 C.ar    0  <0>0       -0.0021
      5  C12       -1.7290   28.4350   52.3430 C.ar    0  <0>0        0.0032
      6  C13       -1.2610   28.2760   53.6270 C.ar    0  <0>0        0.0107
      7  C14       -0.3570   27.1400   54.0270 C.3     0  <0>0        0.0293
      8  C15        0.2870   26.5070   52.7950 C.3     0  <0>0        0.0076
      9  C16       -0.8190   26.1800   51.7850 C.3     0  <0>0        0.0342
     10  C17       -1.3630   27.4940   51.2250 C.3     0  <0>0        0.1325
     11  O1        -1.1650   29.0390   55.8820 O.3     0  <0>0       -0.4398
     12  C6        -0.3320   29.9880   56.3720 C.2     0  <0>0        0.2126
     13  C5        -0.1570   30.1330   57.7730 C.3     0  <0>0        0.1406
     14  C2        -0.7460   29.3810   58.8670 C.2     0  <0>0       -0.0274
     15  C4         0.7400   31.1530   58.1680 C.2     0  <0>0        0.0971
     16  C1        -1.7150   28.2620   58.5880 C.3     0  <0>0        0.0274
     17  C3        -0.4210   29.6980   60.1300 C.2     0  <0>0        0.0017
     18  S1         0.7270   31.0490   59.9380 S.3     0  <0>0       -0.0768
     19  C18       -0.9090   29.0630   61.4060 C.3     0  <0>0        0.0376
     20  N2         1.3510   31.9120   57.2820 N.2     0  <0>0       -0.2412
     21  C7         1.1410   31.7310   55.9920 C.3     0  <0>0        0.2533
     22  N1         0.3210   30.7940   55.5530 N.2     0  <0>0       -0.2137
     23  O2        -2.5230   27.2240   50.4360 O.3     0  <0>0       -0.3801
     24  H15       -3.3240   27.0700   50.9550 H       0  <0>0        0.2108
@<TRIPOS>BOND
     1    23    24    1
     2    23    10    1
     3    10     9    1
     4    10     5    1
     5     9     8    1
     6     4     5   ar
     7     4     3   ar
     8     5     6   ar
     9     8     7    1
    10     3     2   ar
    11     6     7    1
    12     6     1   ar
    13     2     1   ar
    14     1    11    1
    15    22    21    1
    16    22    12    2
    17    11    12    1
    18    21    20    1
    19    12    13    1
    20    20    15    2
    21    13    15    1
    22    13    14    1
    23    15    18    1
    24    16    14    1
    25    14    17    2
    26    18    17    1
    27    17    19    1
