@<TRIPOS>MOLECULE
ZINC52250303_replica-1.pdb
 21 21 0 0 0
SMALL
GASTEIGER

@<TRIPOS>ATOM
      1  C7         7.7100   35.8240   58.6670 C.3     0  <0>0        0.1169
      2  C3         7.1440   34.4080   58.5550 C.3     0  <0>0        0.1274
      3  C2         6.3800   34.0620   59.8360 C.3     0  <0>0        0.0138
      4  C1         6.9120   32.7460   60.4070 C.3     0  <0>0        0.0007
      5  C4         6.2080   34.3320   57.3770 C.2     0  <0>0        0.3191
      6  O1         5.2140   35.0200   57.3510 O.2     0  <0>0       -0.2500
      7  O2         6.4780   33.5030   56.3570 O.3     0  <0>0       -0.4484
      8  C5         7.5260   32.5520   56.5540 C.3     0  <0>0        0.2086
      9  C6         6.9210   31.1860   56.8860 C.3     0  <0>0        0.0513
     10  C8         8.2570   36.2630   57.3080 C.3     0  <0>0        0.0317
     11  C9         7.6640   37.6230   56.9330 C.3     0  <0>0        0.0027
     12  C10        8.7160   38.7140   57.1400 C.3     0  <0>0        0.0001
     13  C11        7.2310   37.6030   55.4650 C.3     0  <0>0        0.0001
     14  C12        8.8210   35.8420   59.6850 C.ar    0  <0>0        0.0022
     15  C17        8.8050   36.7710   60.7090 C.ar    0  <0>0       -0.0020
     16  C16        9.8220   36.7840   61.6460 C.ar    0  <0>0       -0.0002
     17  C15       10.8600   35.8750   61.5530 C.ar    0  <0>0       -0.0000
     18  C14       10.8790   34.9510   60.5250 C.ar    0  <0>0       -0.0002
     19  C13        9.8600   34.9350   59.5910 C.ar    0  <0>0       -0.0020
     20  O3         6.6750   36.7200   59.0760 O.3     0  <0>0       -0.3821
     21  H26        6.0110   36.8930   58.3950 H       0  <0>0        0.2107
@<TRIPOS>BOND
     1    13    11    1
     2     7     8    1
     3     7     5    1
     4     8     9    1
     5    11    12    1
     6    11    10    1
     7    10     1    1
     8     6     5    2
     9     5     2    1
    10    21    20    1
    11     2     1    1
    12     2     3    1
    13     1    20    1
    14     1    14    1
    15    19    14   ar
    16    19    18   ar
    17    14    15   ar
    18     3     4    1
    19    18    17   ar
    20    15    16   ar
    21    17    16   ar
