@<TRIPOS>MOLECULE
ZINC43320197_replica-1.pdb
 22 24 0 0 0
SMALL
GASTEIGER

@<TRIPOS>ATOM
      1  C8        -1.1730   29.2500   56.4410 C.3     0  <0>0        0.0918
      2  N1        -0.2510   28.4400   55.6410 N.pl3   0  <0>0       -0.3308
      3  H8         0.5970   28.1540   56.0180 H       0  <0>0        0.1471
      4  C3        -0.5900   28.0800   54.3350 C.ar    0  <0>0        0.0429
      5  C2        -0.1860   26.8540   53.8240 C.ar    0  <0>0        0.0187
      6  C1         0.6200   25.9090   54.6780 C.3     0  <0>0        0.0347
      7  C7        -0.5200   26.5020   52.5290 C.ar    0  <0>0        0.1373
      8  C6        -1.2660   27.3690   51.7460 C.ar    0  <0>0        0.0294
      9  F1        -0.1240   25.3120   52.0280 F       0  <0>0       -0.2045
     10  C5        -1.6680   28.5900   52.2530 C.ar    0  <0>0        0.0035
     11  C4        -1.3320   28.9490   53.5440 C.ar    0  <0>0        0.0141
     12  C9        -0.4750   30.5060   56.8940 C.ar    0  <0>0       -0.0044
     13  C14       -0.0700   30.6340   58.2090 C.ar    0  <0>0        0.0004
     14  C13        0.5750   31.7830   58.6260 C.ar    0  <0>0        0.0366
     15  C12        0.8060   32.8130   57.7260 C.ar    0  <0>0        0.1387
     16  C11        0.3930   32.6840   56.4090 C.ar    0  <0>0        0.0366
     17  C10       -0.2470   31.5310   55.9940 C.ar    0  <0>0        0.0004
     18  O1         1.4360   33.9450   58.1350 O.3     0  <0>0       -0.4714
     19  C15        0.8040   35.1890   57.8220 C.3     0  <0>0        0.2525
     20  C16       -1.6260   28.4480   57.6630 C.3     0  <0>0        0.0221
     21  C18       -2.9300   27.6560   57.5440 C.3     0  <0>0        0.0020
     22  C17       -1.5870   26.9230   57.5620 C.3     0  <0>0        0.0020
@<TRIPOS>BOND
     1     8    10   ar
     2     8     7   ar
     3     9     7    1
     4    10    11   ar
     5     7     5   ar
     6    11     4   ar
     7     5     4   ar
     8     5     6    1
     9     4     2    1
    10     2     3    1
    11     2     1    1
    12    17    16   ar
    13    17    12   ar
    14    16    15   ar
    15     1    12    1
    16     1    20    1
    17    12    13   ar
    18    21    22    1
    19    21    20    1
    20    22    20    1
    21    15    18    1
    22    15    14   ar
    23    19    18    1
    24    13    14   ar
