@<TRIPOS>MOLECULE
ZINC54745558_replica-1.pdb
 26 27 0 0 0
SMALL
GASTEIGER

@<TRIPOS>ATOM
      1  C8         8.7080   36.7580   58.5010 C.ar    0  <0>0       -0.0026
      2  C9         8.8980   37.5630   59.6070 C.ar    0  <0>0       -0.0029
      3  C10        9.6810   37.1230   60.6580 C.ar    0  <0>0       -0.0021
      4  C11       10.2740   35.8750   60.6020 C.ar    0  <0>0        0.0073
      5  C12       10.0840   35.0690   59.4960 C.ar    0  <0>0       -0.0021
      6  C13        9.2970   35.5080   58.4460 C.ar    0  <0>0       -0.0029
      7  C7         7.8550   37.2390   57.3550 C.3     0  <0>0        0.1163
      8  N2         7.0210   36.1350   56.8710 N.am    0  <0>0       -0.3004
      9  C6         6.9740   35.8530   55.5550 C.2     0  <0>0        0.2240
     10  O1         7.6240   36.5120   54.7690 O.2     0  <0>0       -0.2751
     11  H6         6.5030   35.6080   57.4990 H       0  <0>0        0.1497
     12  C5         6.1170   34.7180   55.0570 C.3     0  <0>0        0.1036
     13  C3         6.2480   33.5420   55.9890 C.3     0  <0>0        0.1193
     14  C2         5.2910   32.8670   56.6690 C.2     0  <0>0        0.1090
     15  C1         3.8360   33.2480   56.5660 C.3     0  <0>0        0.0634
     16  N1         5.6890   31.8640   57.4310 N.2     0  <0>0       -0.3633
     17  C4         6.9610   31.5350   57.5110 C.1     0  <0>0        0.0667
     18  S1         7.7100   32.6530   56.5020 S.3     0  <0>0       -0.0357
     19  S2         7.7010   30.2410   58.4510 S.2     0  <0>0        0.0307
     20  C14       11.1280   35.3950   61.7470 C.3     0  <0>0        0.1689
     21  O2        11.5950   34.0730   61.4700 O.3     0  <0>0       -0.3408
     22  C15       12.0020   33.3460   62.6320 C.3     0  <0>0        0.2461
     23  C16       13.5210   33.4450   62.7890 C.3     0  <0>0        0.4248
     24  F1        14.0740   34.0030   61.6310 F       0  <0>0       -0.1674
     25  F2        13.8240   34.2560   63.8880 F       0  <0>0       -0.1674
     26  F3        14.0530   32.1670   62.9900 F       0  <0>0       -0.1674
@<TRIPOS>BOND
     1    10     9    2
     2    12     9    1
     3    12    13    1
     4     9     8   am
     5    13    18    1
     6    13    14    1
     7    18    17    1
     8    15    14    1
     9    14    16    2
    10     8     7    1
    11     8    11    1
    12     7     1    1
    13    16    17    2
    14    17    19    2
    15     6     1   ar
    16     6     5   ar
    17     1     2   ar
    18     5     4   ar
    19     2     3   ar
    20     4     3   ar
    21     4    20    1
    22    21    20    1
    23    21    22    1
    24    24    23    1
    25    22    23    1
    26    23    26    1
    27    23    25    1
