@<TRIPOS>MOLECULE
ZINC06644290_replica-1.pdb
 30 33 0 0 0
SMALL
GASTEIGER

@<TRIPOS>ATOM
      1  C7         3.8610   34.5300   59.8560 C.2     0  <0>0        0.1781
      2  C8         3.9400   35.6950   59.1720 C.2     0  <0>0        0.0308
      3  C24        2.5820   33.9640   60.1620 C.1     0  <0>0        0.1194
      4  N2         1.5670   33.5150   60.4050 N.1     0  <0>0       -0.1895
      5  S1         5.3330   33.7100   60.3700 S.O2    0  <0>0        0.0365
      6  O1         6.2300   34.7220   60.8080 O.2     0  <0>0       -0.1636
      7  O2         4.9270   32.6360   61.2090 O.2     0  <0>0       -0.1636
      8  C4         6.0550   32.9840   58.9360 C.ar    0  <0>0        0.1110
      9  C3         7.4120   33.1070   58.7070 C.ar    0  <0>0        0.0188
     10  C2         7.9780   32.5370   57.5820 C.ar    0  <0>0        0.0013
     11  C1         7.1850   31.8460   56.6840 C.ar    0  <0>0        0.0001
     12  C6         5.8280   31.7220   56.9140 C.ar    0  <0>0        0.0013
     13  C5         5.2630   32.2880   58.0420 C.ar    0  <0>0        0.0188
     14  C9         5.2110   36.1100   58.5750 C.ar    0  <0>0        0.0206
     15  C12        5.6480   35.8880   57.1830 C.ar    0  <0>0        0.0173
     16  C11        6.9270   36.4590   57.0840 C.ar    0  <0>0        0.0602
     17  C13        5.0680   35.2760   56.0750 C.ar    0  <0>0        0.0015
     18  N1         7.2420   36.9870   58.3190 N.ar    0  <0>0       -0.3217
     19  C16        7.6050   36.4060   55.8700 C.ar    0  <0>0        0.0172
     20  C10        6.2290   36.7730   59.1970 C.ar    0  <0>0        0.0762
     21  C15        7.0200   35.7970   54.7820 C.ar    0  <0>0        0.0015
     22  C14        5.7560   35.2320   54.8820 C.ar    0  <0>0        0.0001
     23  C17        8.4960   37.6740   58.6390 C.3     0  <0>0        0.1350
     24  C18        9.2810   36.8530   59.6300 C.ar    0  <0>0        0.0279
     25  C23        9.8560   35.6560   59.2360 C.ar    0  <0>0        0.1380
     26  C22       10.5800   34.9060   60.1460 C.ar    0  <0>0        0.0294
     27  F1         9.7120   35.2240   57.9640 F       0  <0>0       -0.2044
     28  C21       10.7200   35.3460   61.4490 C.ar    0  <0>0        0.0023
     29  C20       10.1420   36.5390   61.8420 C.ar    0  <0>0       -0.0001
     30  C19        9.4230   37.2920   60.9330 C.ar    0  <0>0       -0.0002
@<TRIPOS>BOND
     1    21    22   ar
     2    21    19   ar
     3    22    17   ar
     4    19    16   ar
     5    17    15   ar
     6    11    12   ar
     7    11    10   ar
     8    12    13   ar
     9    16    15   ar
    10    16    18   ar
    11    15    14   ar
    12    10     9   ar
    13    27    25    1
    14    13     8   ar
    15    18    23    1
    16    18    20   ar
    17    14     2    1
    18    14    20   ar
    19    23    24    1
    20     9     8   ar
    21     8     5    1
    22     2     1    2
    23    25    24   ar
    24    25    26   ar
    25    24    30   ar
    26     1     3    1
    27     1     5    1
    28    26    28   ar
    29     3     4    3
    30     5     6    2
    31     5     7    2
    32    30    29   ar
    33    28    29   ar
