@<TRIPOS>MOLECULE
ZINC13982914_replica-1.pdb
 26 27 0 0 0
SMALL
GASTEIGER

@<TRIPOS>ATOM
      1  C12        0.4550   32.2090   56.4410 C.2     0  <0>0        0.2856
      2  O2         1.3530   31.4190   56.6410 O.2     0  <0>0       -0.2693
      3  N1        -0.4080   32.0060   55.4260 N.am    0  <0>0       -0.2031
      4  H16       -1.1260   32.6380   55.2670 H       0  <0>0        0.1774
      5  C11        0.3030   33.4180   57.3290 C.3     0  <0>0        0.2911
      6  O1         0.7570   34.5800   56.6330 O.3     0  <0>0       -0.4656
      7  C8         2.0230   34.9990   56.8930 C.ar    0  <0>0        0.1393
      8  C7         2.3890   35.3480   58.1850 C.ar    0  <0>0        0.0366
      9  C6         3.6770   35.7740   58.4460 C.ar    0  <0>0       -0.0012
     10  C5         4.6020   35.8540   57.4220 C.ar    0  <0>0       -0.0223
     11  C10        4.2400   35.5070   56.1330 C.ar    0  <0>0       -0.0012
     12  C9         2.9550   35.0750   55.8680 C.ar    0  <0>0        0.0366
     13  C3         6.0050   36.3190   57.7090 C.3     0  <0>0        0.0223
     14  C4         6.6520   35.3870   58.7360 C.3     0  <0>0        0.0047
     15  C2         6.8240   36.3000   56.4170 C.3     0  <0>0        0.0044
     16  C1         7.5270   37.6480   56.2380 C.3     0  <0>0        0.0003
     17  N2        -0.2670   30.8830   54.6010 N.2     0  <0>0       -0.1835
     18  C13       -1.2690   30.0770   54.4240 C.2     0  <0>0        0.0762
     19  C14       -2.5860   30.3510   55.1050 C.3     0  <0>0        0.0474
     20  C15       -2.7620   29.3890   56.2800 C.3     0  <0>0        0.0067
     21  C16       -1.1200   28.8950   53.5560 C.ar    0  <0>0        0.0150
     22  C21       -0.3170   27.8260   53.9570 C.ar    0  <0>0        0.0012
     23  C20       -0.1830   26.7230   53.1400 C.ar    0  <0>0        0.0000
     24  C19       -0.8420   26.6750   51.9240 C.ar    0  <0>0        0.0000
     25  C18       -1.6400   27.7300   51.5190 C.ar    0  <0>0        0.0000
     26  C17       -1.7870   28.8370   52.3290 C.ar    0  <0>0        0.0012
@<TRIPOS>BOND
     1    25    24   ar
     2    25    26   ar
     3    24    23   ar
     4    26    21   ar
     5    23    22   ar
     6    21    22   ar
     7    21    18    1
     8    18    17    2
     9    18    19    1
    10    17     3    1
    11    19    20    1
    12     4     3    1
    13     3     1   am
    14    12    11   ar
    15    12     7   ar
    16    11    10   ar
    17    16    15    1
    18    15    13    1
    19     1     2    2
    20     1     5    1
    21     6     7    1
    22     6     5    1
    23     7     8   ar
    24    10    13    1
    25    10     9   ar
    26    13    14    1
    27     8     9   ar
