@<TRIPOS>MOLECULE
ZINC14477069_replica-1.pdb
 35 39 0 0 0
SMALL
GASTEIGER

@<TRIPOS>ATOM
      1  C8         1.7620   32.4810   58.6780 C.ar    0  <0>0        0.1249
      2  C9         2.3280   32.6660   57.4290 C.ar    0  <0>0        0.0214
      3  C10        1.8680   31.9430   56.3470 C.ar    0  <0>0        0.0154
      4  C11        0.8310   31.0320   56.5000 C.ar    0  <0>0        0.0408
      5  C12        0.2540   30.8610   57.7640 C.ar    0  <0>0       -0.0080
      6  C13        0.7240   31.5830   58.8400 C.ar    0  <0>0        0.0171
      7  C14       -0.8660   29.9020   57.8790 C.3     0  <0>0        0.0255
      8  C15       -1.1790   29.2110   59.1560 C.3     0  <0>0        0.0045
      9  C16       -1.6870   28.0170   58.8790 C.3     0  <0>0        0.0004
     10  C17       -1.7200   27.8010   57.3640 C.3     0  <0>0        0.0023
     11  C18       -0.5890   28.7250   56.8960 C.3     0  <0>0        0.0262
     12  C19       -0.7120   29.3220   55.5060 C.3     0  <0>0        0.0929
     13  N2         0.3950   30.2970   55.3910 N.pl3   0  <0>0       -0.3308
     14  H18        0.8260   30.4310   54.5320 H       0  <0>0        0.1471
     15  S1         2.3600   33.3960   60.0610 S.O2    0  <0>0        0.0736
     16  O1         1.3060   33.4290   61.0120 O.2     0  <0>0       -0.1499
     17  O2         2.9540   34.5780   59.5390 O.2     0  <0>0       -0.1499
     18  N1         3.5830   32.5110   60.7410 N.pl3   0  <0>0       -0.2156
     19  H10        3.9130   32.7380   61.6240 H       0  <0>0        0.1737
     20  C7         4.1400   31.4370   60.0410 C.ar    0  <0>0        0.0568
     21  C2         5.2130   31.6460   59.1850 C.ar    0  <0>0       -0.0075
     22  C1         5.7780   33.0320   59.0070 C.3     0  <0>0        0.0324
     23  C3         5.7620   30.5820   58.4960 C.ar    0  <0>0       -0.0030
     24  C4         5.2410   29.3120   58.6540 C.ar    0  <0>0       -0.0006
     25  C5         4.1770   29.0990   59.5110 C.ar    0  <0>0       -0.0030
     26  C6         3.6230   30.1580   60.2030 C.ar    0  <0>0       -0.0075
     27  C26        2.4590   29.9270   61.1310 C.3     0  <0>0        0.0324
     28  C20       -0.5700   28.2450   54.4610 C.ar    0  <0>0        0.0068
     29  C25       -1.2230   28.3670   53.2480 C.ar    0  <0>0        0.0658
     30  C24       -1.0870   27.3800   52.2870 C.ar    0  <0>0        0.0679
     31 Cl         -2.2060   29.7630   52.9270 Cl      0  <0>0       -0.0816
     32  C23       -0.3100   26.2660   52.5460 C.ar    0  <0>0        0.0122
     33 Cl         -1.8990   27.5370   50.7600 Cl      0  <0>0       -0.0814
     34  C22        0.3370   26.1430   53.7620 C.ar    0  <0>0        0.0006
     35  C21        0.2070   27.1310   54.7180 C.ar    0  <0>0       -0.0018
@<TRIPOS>BOND
     1    33    30    1
     2    30    32   ar
     3    30    29   ar
     4    32    34   ar
     5    31    29    1
     6    29    28   ar
     7    34    35   ar
     8    28    35   ar
     9    28    12    1
    10    14    13    1
    11    13    12    1
    12    13     4    1
    13    12    11    1
    14     3     4   ar
    15     3     2   ar
    16     4     5   ar
    17    11    10    1
    18    11     7    1
    19    10     9    1
    20     2     1   ar
    21     5     7    1
    22     5     6   ar
    23     7     8    1
    24    23    24   ar
    25    23    21   ar
    26    24    25   ar
    27     1     6   ar
    28     1    15    1
    29     9     8    1
    30    22    21    1
    31    21    20   ar
    32    25    26   ar
    33    17    15    2
    34    20    26   ar
    35    20    18    1
    36    15    18    1
    37    15    16    2
    38    26    27    1
    39    18    19    1
