@<TRIPOS>MOLECULE
ZINC01630689_replica-1.pdb
 31 34 0 0 0
SMALL
GASTEIGER

@<TRIPOS>ATOM
      1  C4         0.4280   29.7580   57.2180 C.3     0  <0>0        0.1889
      2  C5         0.4380   30.5160   58.3970 C.2     0  <0>0       -0.0014
      3  C6         0.5270   31.9260   58.2790 C.ar    0  <0>0        0.0266
      4  C7         0.5430   32.7490   59.4130 C.ar    0  <0>0        0.0023
      5  C8         0.6290   34.1010   59.2640 C.ar    0  <0>0        0.0002
      6  C9         0.7040   34.6750   57.9970 C.ar    0  <0>0        0.0026
      7  C10        0.6930   33.9040   56.8750 C.ar    0  <0>0        0.0321
      8  C11        0.6030   32.5060   56.9890 C.ar    0  <0>0        0.1324
      9  N1         0.5960   31.7310   55.8970 N.2     0  <0>0       -0.3894
     10  C12        0.5080   30.4210   55.9720 C.2     0  <0>0        0.1868
     11  N2         0.5000   29.6760   54.8080 N.pl3   0  <0>0       -0.2429
     12  H10        1.3330   29.3450   54.4380 H       0  <0>0        0.1722
     13  N3        -0.7120   29.3980   54.1630 N.pl3   0  <0>0       -0.2637
     14  H11       -1.4840   29.9660   54.3150 H       0  <0>0        0.1700
     15  C13       -0.8090   28.3050   53.2990 C.ar    0  <0>0        0.0611
     16  C18       -1.5430   28.4090   52.1240 C.ar    0  <0>0        0.0158
     17  C17       -1.6360   27.3270   51.2710 C.ar    0  <0>0        0.0013
     18  C16       -1.0010   26.1400   51.5850 C.ar    0  <0>0        0.0001
     19  C15       -0.2690   26.0330   52.7540 C.ar    0  <0>0        0.0013
     20  C14       -0.1710   27.1110   53.6110 C.ar    0  <0>0        0.0158
     21  C3         0.3380   28.2920   57.2760 C.2     0  <0>0        0.3289
     22  O2         1.2690   27.6420   57.7090 O.2     0  <0>0       -0.2492
     23  O1        -0.7790   27.6680   56.8480 O.3     0  <0>0       -0.4480
     24  C2        -2.0060   27.9440   57.5720 C.3     0  <0>0        0.2086
     25  C1        -3.0130   28.6110   56.6330 C.3     0  <0>0        0.0513
     26  C19        0.3560   29.8660   59.7230 C.ar    0  <0>0       -0.0029
     27  C24       -0.8880   29.5710   60.2830 C.ar    0  <0>0       -0.0003
     28  C23       -0.9580   28.9650   61.5200 C.ar    0  <0>0       -0.0000
     29  C22        0.2020   28.6490   62.2050 C.ar    0  <0>0       -0.0000
     30  C21        1.4390   28.9400   61.6570 C.ar    0  <0>0       -0.0000
     31  C20        1.5220   29.5410   60.4180 C.ar    0  <0>0       -0.0003
@<TRIPOS>BOND
     1    17    18   ar
     2    17    16   ar
     3    18    19   ar
     4    16    15   ar
     5    19    20   ar
     6    15    20   ar
     7    15    13    1
     8    13    14    1
     9    13    11    1
    10    12    11    1
    11    11    10    1
    12     9    10    2
    13     9     8    2
    14    10     1    1
    15    25    24    1
    16    23    21    1
    17    23    24    1
    18     7     8   ar
    19     7     6   ar
    20     8     3   ar
    21     1    21    1
    22     1     2    1
    23    21    22    2
    24     6     5   ar
    25     3     2    2
    26     3     4   ar
    27     2    26    1
    28     5     4   ar
    29    26    27   ar
    30    26    31   ar
    31    27    28   ar
    32    31    30   ar
    33    28    29   ar
    34    30    29   ar
