@<TRIPOS>MOLECULE
ZINC05734627_replica-1.pdb
 22 22 0 0 0
SMALL
GASTEIGER

@<TRIPOS>ATOM
      1  N3         0.0630   31.8020   55.9520 N.3     0  <0>0       -0.1337
      2  N2         1.2200   31.2820   56.5460 N.am    0  <0>0       -0.2443
      3  H11        2.0840   31.4200   56.1280 H       0  <0>0        0.1696
      4  C5         1.1320   30.5870   57.6990 C.2     0  <0>0        0.1459
      5  S1         0.8960   31.4130   59.1790 S.2     0  <0>0       -0.0176
      6  N1         1.2300   29.2440   57.6840 N.am    0  <0>0       -0.3151
      7  H10        1.9950   28.8160   57.2670 H       0  <0>0        0.1485
      8  C4         0.1800   28.4270   58.2980 C.3     0  <0>0        0.0884
      9  C2        -0.5500   27.6340   57.2130 C.3     0  <0>0        0.0196
     10  C1        -0.1540   26.1580   57.3050 C.3     0  <0>0        0.0017
     11  C3        -2.0620   27.7690   57.4120 C.3     0  <0>0        0.0017
     12  C6        -0.7930   31.0020   55.3830 C.3     0  <0>0        0.0941
     13  C7        -2.2400   31.0310   55.7980 C.3     0  <0>0        0.0208
     14  C8        -0.3610   30.1040   54.3730 C.3     0  <0>0        0.0239
     15  C9        -1.2560   29.5740   53.5150 C.3     0  <0>0        0.0278
     16  C10       -1.0480   28.2210   52.9770 C.ar    0  <0>0       -0.0221
     17  C15       -1.6330   27.8480   51.7630 C.ar    0  <0>0       -0.0034
     18  C14       -1.4340   26.5790   51.2650 C.ar    0  <0>0        0.0111
     19  C13       -0.6550   25.6720   51.9660 C.ar    0  <0>0        0.0577
     20  C12       -0.0670   26.0340   53.1660 C.ar    0  <0>0        0.0111
     21 Cl         -0.4090   24.0740   51.3310 Cl      0  <0>0       -0.0822
     22  C11       -0.2630   27.2990   53.6780 C.ar    0  <0>0       -0.0034
@<TRIPOS>BOND
     1    18    17   ar
     2    18    19   ar
     3    21    19    1
     4    17    16   ar
     5    19    20   ar
     6    16    15    1
     7    16    22   ar
     8    20    22   ar
     9    15    14    1
    10    14    12    1
    11    12    13    1
    12    12     1    1
    13     1     2    1
    14     3     2    1
    15     2     4    1
    16     9    10    1
    17     9    11    1
    18     9     8    1
    19     7     6    1
    20     6     4    1
    21     6     8    1
    22     4     5    2
