@<TRIPOS>MOLECULE
ZINC20126531_replica-1.pdb
 22 23 0 0 0
SMALL
GASTEIGER

@<TRIPOS>ATOM
      1  C17        0.9130   34.6690   58.4810 C.3     0  <0>0        0.3090
      2  C18        0.6170   33.6350   57.4740 C.1     0  <0>0        0.1218
      3  N2         0.3880   32.8380   56.6980 N.1     0  <0>0       -0.1920
      4  O1         1.4610   35.8190   57.8350 O.3     0  <0>0       -0.4593
      5  C14        2.8150   35.8750   57.7190 C.ar    0  <0>0        0.1402
      6  C13        3.3980   36.0440   56.4710 C.ar    0  <0>0        0.0382
      7  C12        4.7730   36.1060   56.3540 C.ar    0  <0>0        0.0174
      8  C11        5.5720   35.9890   57.4840 C.ar    0  <0>0        0.0450
      9  C16        4.9870   35.8210   58.7330 C.ar    0  <0>0        0.0174
     10  C15        3.6130   35.7640   58.8490 C.ar    0  <0>0        0.0382
     11  N1         6.9650   36.0470   57.3650 N.pl3   0  <0>0       -0.3306
     12  H14        7.5060   35.2460   56.8410 H       0  <0>0        0.1471
     13  C3         7.7030   37.1760   57.9380 C.3     0  <0>0        0.0919
     14  C2         8.4490   37.9150   56.8250 C.3     0  <0>0        0.0241
     15  C1         7.4420   38.6200   55.9150 C.3     0  <0>0        0.0021
     16  C4         8.6920   36.6670   58.9540 C.ar    0  <0>0       -0.0046
     17  C9         8.9780   37.4210   60.0770 C.ar    0  <0>0       -0.0030
     18  C8         9.8850   36.9540   61.0100 C.ar    0  <0>0       -0.0045
     19  C7        10.5060   35.7330   60.8200 C.ar    0  <0>0       -0.0219
     20  C6        10.2160   34.9780   59.7000 C.ar    0  <0>0       -0.0045
     21  C10       11.4950   35.2250   61.8380 C.3     0  <0>0        0.0310
     22  C5         9.3130   35.4470   58.7640 C.ar    0  <0>0       -0.0030
@<TRIPOS>BOND
     1    15    14    1
     2     7     6   ar
     3     7     8   ar
     4     6     5   ar
     5     3     2    3
     6    14    13    1
     7    12    11    1
     8    11     8    1
     9    11    13    1
    10     2     1    1
    11     8     9   ar
    12     5     4    1
    13     5    10   ar
    14     4     1    1
    15    13    16    1
    16     9    10   ar
    17    22    16   ar
    18    22    20   ar
    19    16    17   ar
    20    20    19   ar
    21    17    18   ar
    22    19    18   ar
    23    19    21    1
