@<TRIPOS>MOLECULE
ZINC07523616_replica-1.pdb
 29 32 0 0 0
SMALL
GASTEIGER

@<TRIPOS>ATOM
      1  C1        -1.8300   27.2330   50.8350 C.ar    0  <0>0       -0.0000
      2  C2        -2.0520   28.4790   51.4190 C.ar    0  <0>0       -0.0000
      3  C3        -1.5710   28.7670   52.6580 C.ar    0  <0>0       -0.0003
      4  C4        -0.8280   27.8010   53.3590 C.ar    0  <0>0       -0.0031
      5  C5        -0.5970   26.5360   52.7620 C.ar    0  <0>0       -0.0002
      6  C6        -1.1140   26.2730   51.4830 C.ar    0  <0>0       -0.0000
      7  C7         0.1480   25.5690   53.4610 C.ar    0  <0>0        0.0031
      8  C8         0.6350   25.8560   54.6970 C.ar    0  <0>0        0.0365
      9  C9         0.4080   27.1030   55.2870 C.ar    0  <0>0        0.1330
     10  C10       -0.3100   28.0660   54.6370 C.ar    0  <0>0       -0.0097
     11  C11       -0.5470   29.4040   55.2880 C.3     0  <0>0       -0.0506
     12  N1         0.7340   30.1310   55.3790 N.4     0  <0>0        0.3914
     13  H20        1.2830   29.9560   54.5290 H       0  <0>0       -0.0834
     14  H21        1.2550   29.7990   56.1980 H       0  <0>0       -0.0834
     15  C12        0.4910   31.5800   55.5100 C.3     0  <0>0       -0.0149
     16  C13        0.6020   31.9700   56.9620 C.ar    0  <0>0        0.1017
     17  O1         0.1920   33.1320   57.4970 O.2     0  <0>0       -0.4568
     18  C16        0.4440   33.1310   58.8160 C.ar    0  <0>0        0.1790
     19  C15        1.0300   31.9630   59.1350 C.ar    0  <0>0        0.0434
     20  C14        1.1320   31.2150   57.9400 C.ar    0  <0>0        0.0340
     21  O2         0.9080   27.3610   56.5250 O.3     0  <0>0       -0.4710
     22  C17        0.3880   26.5890   57.6090 C.3     0  <0>0        0.2328
     23  C18        0.1970   27.4780   58.8110 C.ar    0  <0>0        0.0317
     24  C23       -1.0320   28.0690   59.0450 C.ar    0  <0>0        0.0572
     25  C22       -1.2070   28.8840   60.1500 C.ar    0  <0>0        0.0112
     26 Cl         -2.3540   27.7870   57.9550 Cl      0  <0>0       -0.0825
     27  C21       -0.1550   29.1080   61.0170 C.ar    0  <0>0        0.0008
     28  C20        1.0730   28.5160   60.7820 C.ar    0  <0>0       -0.0002
     29  C19        1.2470   27.6970   59.6820 C.ar    0  <0>0        0.0002
@<TRIPOS>BOND
     1     1     2   ar
     2     1     6   ar
     3     2     3   ar
     4     6     5   ar
     5     3     4   ar
     6     5     4   ar
     7     5     7   ar
     8     4    10   ar
     9     7     8   ar
    10    13    12    1
    11    10     9   ar
    12    10    11    1
    13     8     9   ar
    14     9    21    1
    15    11    12    1
    16    12    15    1
    17    12    14    1
    18    15    16    1
    19    21    22    1
    20    16    17   ar
    21    16    20   ar
    22    17    18   ar
    23    22    23    1
    24    20    19   ar
    25    26    24    1
    26    23    24   ar
    27    23    29   ar
    28    18    19   ar
    29    24    25   ar
    30    29    28   ar
    31    25    27   ar
    32    28    27   ar
