@<TRIPOS>MOLECULE
ZINC65005470_replica-1.pdb
 29 31 0 0 0
SMALL
GASTEIGER

@<TRIPOS>ATOM
      1  N2         0.9050   27.8280   55.2190 N.pl3   0  <0>0       -0.3127
      2  H11        1.8410   27.8700   54.9680 H       0  <0>0        0.1522
      3  C9        -0.0250   28.6170   54.5580 C.2     0  <0>0        0.0474
      4  C7        -0.6550   28.1660   53.3740 C.2     0  <0>0        0.0128
      5  C6        -1.5980   29.0090   52.7380 C.3     0  <0>0        0.1159
      6  C8        -0.3670   26.9080   52.8280 C.2     0  <0>0       -0.0054
      7  C5        -2.2260   28.5640   51.5600 C.2     0  <0>0       -0.0028
      8  N1        -1.8810   30.2080   53.2580 N.pl3   0  <0>0       -0.3262
      9  C4        -1.9200   27.3380   51.0530 C.2     0  <0>0       -0.0069
     10  C3        -0.9910   26.5120   51.6830 C.2     0  <0>0       -0.0227
     11  C11       -1.3030   30.6370   54.3550 C.2     0  <0>0        0.0596
     12  H26       -2.5290   30.7760   52.8110 H       0  <0>0        0.1474
     13  C10       -0.3680   29.8720   55.0380 C.2     0  <0>0        0.0299
     14  C2        -0.6770   25.1620   51.0930 C.3     0  <0>0        0.0263
     15  C1        -0.3860   24.1680   52.2200 C.3     0  <0>0        0.0050
     16  C12        0.4940   26.9760   56.2460 C.ar    0  <0>0        0.0484
     17  C17        0.3790   25.6110   56.0150 C.ar    0  <0>0        0.0160
     18  C16       -0.0210   24.7700   57.0340 C.ar    0  <0>0        0.0212
     19  C15       -0.3180   25.2870   58.2820 C.ar    0  <0>0        0.1223
     20  C14       -0.2110   26.6460   58.5150 C.ar    0  <0>0        0.0212
     21  C13        0.1950   27.4920   57.5020 C.ar    0  <0>0        0.0160
     22  S1        -0.8350   24.2100   59.5780 S.O2    0  <0>0        0.0633
     23  O1         0.2660   24.0880   60.4690 O.2     0  <0>0       -0.1528
     24  O2        -2.1110   24.6690   60.0030 O.2     0  <0>0       -0.1528
     25  N3        -1.0680   22.7140   58.9080 N.3     0  <0>0       -0.1555
     26  C18       -2.3340   22.4000   58.2410 C.3     0  <0>0        0.0958
     27  C19       -3.0940   21.3520   59.0570 C.3     0  <0>0        0.0206
     28  C20       -0.0090   21.7040   58.9820 C.3     0  <0>0        0.0958
     29  C21        0.3020   21.1860   57.5760 C.3     0  <0>0        0.0206
@<TRIPOS>BOND
     1     9     7    2
     2     9    10    1
     3    14    10    1
     4    14    15    1
     5     7     5    1
     6    10     6    2
     7     5     8    1
     8     5     4    1
     9    12     8    1
    10     6     4    1
    11     8    11    1
    12     4     3    2
    13    11    13    2
    14     3    13    1
    15     3     1    1
    16     2     1    1
    17     1    16    1
    18    17    16   ar
    19    17    18   ar
    20    16    21   ar
    21    18    19   ar
    22    21    20   ar
    23    29    28    1
    24    26    25    1
    25    26    27    1
    26    19    20   ar
    27    19    22    1
    28    25    28    1
    29    25    22    1
    30    22    24    2
    31    22    23    2
