@<TRIPOS>MOLECULE
ZINC36973098_replica-1.pdb
 18 18 0 0 0
SMALL
GASTEIGER

@<TRIPOS>ATOM
      1  C8         0.2920   28.2290   54.7550 C.ar    0  <0>0        0.0453
      2  C9         0.7510   26.9500   55.0480 C.ar    0  <0>0        0.0152
      3  C10        0.4710   25.8970   54.1980 C.ar    0  <0>0        0.0133
      4  C11       -0.2680   26.1090   53.0490 C.ar    0  <0>0        0.0673
      5  C12       -0.7340   27.3910   52.7460 C.ar    0  <0>0        0.0802
      6  C13       -0.4550   28.4520   53.6090 C.ar    0  <0>0        0.0254
      7  C14       -1.5000   27.6150   51.5560 C.1     0  <0>0        0.1013
      8  N2        -2.1070   27.7910   50.6130 N.1     0  <0>0       -0.1908
      9 Cl         -0.6160   24.7830   51.9840 Cl      0  <0>0       -0.0815
     10  N1         0.5780   29.2890   55.6190 N.pl3   0  <0>0       -0.3340
     11  H16        1.2540   29.1850   56.3070 H       0  <0>0        0.1468
     12  C2        -0.1430   30.5570   55.4870 C.3     0  <0>0        0.0691
     13  C1         0.7830   31.7130   55.8720 C.3     0  <0>0        0.0212
     14  C3        -1.3620   30.5500   56.4120 C.3     0  <0>0        0.0195
     15  C4        -1.0980   29.6180   57.5960 C.3     0  <0>0        0.0017
     16  C5        -2.2230   28.5860   57.6930 C.3     0  <0>0        0.0001
     17  C6        -3.0820   28.6470   56.4280 C.3     0  <0>0        0.0000
     18  C7        -1.6190   27.1870   57.8330 C.3     0  <0>0        0.0000
@<TRIPOS>BOND
     1     8     7    3
     2     7     5    1
     3     9     4    1
     4     5     4   ar
     5     5     6   ar
     6     4     3   ar
     7     6     1   ar
     8     3     2   ar
     9     1     2   ar
    10     1    10    1
    11    12    10    1
    12    12    13    1
    13    12    14    1
    14    10    11    1
    15    14    15    1
    16    17    16    1
    17    15    16    1
    18    16    18    1
