@<TRIPOS>MOLECULE
ZINC37089053_replica-1.pdb
 20 20 0 0 0
SMALL
GASTEIGER

@<TRIPOS>ATOM
      1  C1         7.9340   37.4320   57.4230 C.3     0  <0>0        0.0347
      2  C2         8.7630   36.7240   58.4630 C.ar    0  <0>0        0.0187
      3  C3         9.1720   35.4130   58.2470 C.ar    0  <0>0        0.0434
      4  C4         9.9350   34.7580   59.2010 C.ar    0  <0>0        0.0244
      5  C5        10.2910   35.4190   60.3790 C.ar    0  <0>0        0.0719
      6  C6         9.8760   36.7360   60.5880 C.ar    0  <0>0        0.0397
      7  C7         9.1190   37.3820   59.6270 C.ar    0  <0>0        0.1380
      8  F1         8.7220   38.6570   59.8280 F       0  <0>0       -0.2044
      9  C8        11.0790   34.7490   61.3700 C.1     0  <0>0        0.1005
     10  N1        11.7030   34.2170   62.1540 N.1     0  <0>0       -0.1908
     11  N2         8.8140   34.7550   57.0690 N.pl3   0  <0>0       -0.3341
     12  H7         9.3090   34.9200   56.2510 H       0  <0>0        0.1468
     13  C9         7.6910   33.8140   57.0680 C.3     0  <0>0        0.0714
     14  C10        8.2180   32.3910   56.8690 C.3     0  <0>0        0.0212
     15  C11        6.7320   34.1650   55.9290 C.3     0  <0>0        0.0467
     16  C12        5.3940   34.6240   56.5120 C.3     0  <0>0        0.0946
     17  C13        4.9590   35.9240   55.8310 C.3     0  <0>0        0.0297
     18  C14        4.3360   33.5450   56.2740 C.3     0  <0>0        0.0297
     19  O1         5.5380   34.8480   57.9160 O.3     0  <0>0       -0.3558
     20  C15        4.6910   35.8780   58.4310 C.3     0  <0>0        0.1739
@<TRIPOS>BOND
     1    17    16    1
     2    15    16    1
     3    15    13    1
     4    12    11    1
     5    18    16    1
     6    16    19    1
     7    14    13    1
     8    13    11    1
     9    11     3    1
    10     1     2    1
    11    19    20    1
    12     3     2   ar
    13     3     4   ar
    14     2     7   ar
    15     4     5   ar
    16     7     8    1
    17     7     6   ar
    18     5     6   ar
    19     5     9    1
    20     9    10    3
