@<TRIPOS>MOLECULE
ZINC02399711_replica-1.pdb
 30 32 0 0 0
SMALL
GASTEIGER

@<TRIPOS>ATOM
      1  N1         7.1130   35.6190   58.0760 N.am    0  <0>0       -0.2258
      2  C8         6.2020   34.6040   58.2120 C.2     0  <0>0        0.0377
      3  C9         5.2350   34.4170   57.2900 C.2     0  <0>0        0.0546
      4  C10        4.3020   33.3710   57.4220 C.2     0  <0>0        0.1720
      5  O1         3.4330   33.2400   56.5820 O.2     0  <0>0       -0.2916
      6  C11        4.3590   32.4140   58.5810 C.3     0  <0>0        0.0693
      7  C12        5.8080   32.3050   59.0650 C.3     0  <0>0        0.0126
      8  C13        6.3060   33.7060   59.4210 C.3     0  <0>0        0.0421
      9  C14        5.8720   31.4060   60.3020 C.3     0  <0>0        0.0008
     10  C15        6.6790   31.7140   57.9550 C.3     0  <0>0        0.0008
     11  C16        5.1200   35.3170   56.0890 C.3     0  <0>0        0.2562
     12  N2         6.1470   36.3460   56.0740 N.am    0  <0>0       -0.2740
     13  C17        7.0730   36.4600   57.0340 C.2     0  <0>0        0.3118
     14  O2         7.9000   37.3460   56.9550 O.2     0  <0>0       -0.2519
     15  H18        6.1600   36.9780   55.3380 H       0  <0>0        0.1517
     16  C18        3.7450   35.9900   56.1020 C.3     0  <0>0        0.4236
     17  F1         2.8070   35.1460   55.4980 F       0  <0>0       -0.1677
     18  F2         3.3630   36.2440   57.4230 F       0  <0>0       -0.1677
     19  F3         3.8090   37.1970   55.3950 F       0  <0>0       -0.1677
     20  C19        5.2440   34.4710   54.8200 C.3     0  <0>0        0.4236
     21  F4         5.9510   33.2990   55.1080 F       0  <0>0       -0.1677
     22  F5         3.9680   34.1430   54.3510 F       0  <0>0       -0.1677
     23  F6         5.9270   35.1990   53.8400 F       0  <0>0       -0.1677
     24  C5         8.1060   35.7840   59.0500 C.ar    0  <0>0        0.0592
     25  C4         9.3140   35.1090   58.9330 C.ar    0  <0>0        0.0150
     26  C3        10.2920   35.2740   59.8950 C.ar    0  <0>0       -0.0030
     27  C2        10.0700   36.1120   60.9720 C.ar    0  <0>0       -0.0218
     28  C1        11.1380   36.2900   62.0190 C.3     0  <0>0        0.0310
     29  C7         8.8670   36.7820   61.0930 C.ar    0  <0>0       -0.0030
     30  C6         7.8870   36.6240   60.1320 C.ar    0  <0>0        0.0150
@<TRIPOS>BOND
     1    23    20    1
     2    22    20    1
     3    20    21    1
     4    20    11    1
     5    15    12    1
     6    19    16    1
     7    17    16    1
     8    12    11    1
     9    12    13   am
    10    11    16    1
    11    11     3    1
    12    16    18    1
    13     5     4    2
    14    14    13    2
    15    13     1   am
    16     3     4    1
    17     3     2    2
    18     4     6    1
    19    10     7    1
    20     1     2    1
    21     1    24    1
    22     2     8    1
    23     6     7    1
    24    25    24   ar
    25    25    26   ar
    26    24    30   ar
    27     7     8    1
    28     7     9    1
    29    26    27   ar
    30    30    29   ar
    31    27    29   ar
    32    27    28    1
