@<TRIPOS>MOLECULE
ZINC38655698_replica-1.pdb
 33 36 0 0 0
SMALL
GASTEIGER

@<TRIPOS>ATOM
      1  C8        10.8260   35.5290   61.3440 C.ar    0  <0>0        0.1518
      2  C9        10.9030   34.6250   60.2930 C.ar    0  <0>0        0.0375
      3  C10       10.1370   34.8160   59.1600 C.ar    0  <0>0        0.0025
      4  C11        9.2910   35.9060   59.0660 C.ar    0  <0>0        0.0213
      5  C12        9.2100   36.8130   60.1120 C.ar    0  <0>0        0.1465
      6  C13        9.9760   36.6190   61.2550 C.ar    0  <0>0        0.0748
      7  O3         8.3870   37.8870   60.0390 O.3     0  <0>0       -0.4402
      8  C14        7.9380   38.3080   58.8450 C.2     0  <0>0        0.1989
      9  C15        7.9480   37.5070   57.7530 C.2     0  <0>0        0.1026
     10  C16        8.4640   36.0970   57.8230 C.3     0  <0>0        0.0838
     11  C23        7.4570   38.0130   56.5070 C.1     0  <0>0        0.1011
     12  N1         7.0670   38.4150   55.5180 N.1     0  <0>0       -0.1910
     13  N2         7.4550   39.5870   58.7270 N.pl3   0  <0>0       -0.3284
     14  H12        8.0480   40.3440   58.8600 H       0  <0>0        0.1451
     15  H13        6.5220   39.7360   58.5120 H       0  <0>0        0.1451
     16  C17        7.3000   35.1400   57.8460 C.ar    0  <0>0       -0.0125
     17  C22        6.3520   35.2310   58.8480 C.ar    0  <0>0        0.0086
     18  C21        5.2800   34.3560   58.8670 C.ar    0  <0>0        0.0679
     19  C20        5.1640   33.3840   57.8890 C.ar    0  <0>0        0.0682
     20 Cl          4.0850   34.4740   60.1210 Cl      0  <0>0       -0.0814
     21  C19        6.1170   33.2910   56.8900 C.ar    0  <0>0        0.0119
     22 Cl          3.8230   32.2810   57.9140 Cl      0  <0>0       -0.0814
     23  C18        7.1840   34.1700   56.8690 C.ar    0  <0>0       -0.0027
     24  O2        11.5790   35.3420   62.4590 O.3     0  <0>0       -0.4209
     25  C7        12.6290   34.5020   62.3800 C.2     0  <0>0        0.3457
     26  O1        13.6580   34.8630   61.8440 O.2     0  <0>0       -0.2445
     27  C6        12.5290   33.1400   62.9430 C.ar    0  <0>0        0.0761
     28  C1        11.2860   32.5100   63.0370 C.ar    0  <0>0        0.0073
     29  C2        11.1990   31.2380   63.5630 C.ar    0  <0>0        0.0116
     30  C3        12.3410   30.5850   63.9970 C.ar    0  <0>0        0.0577
     31  C4        13.5780   31.2050   63.9060 C.ar    0  <0>0        0.0116
     32 Cl         12.2240   28.9850   64.6580 Cl      0  <0>0       -0.0822
     33  C5        13.6770   32.4770   63.3820 C.ar    0  <0>0        0.0073
@<TRIPOS>BOND
     1    12    11    3
     2    11     9    1
     3    23    21   ar
     4    23    16   ar
     5    21    19   ar
     6     9    10    1
     7     9     8    2
     8    10    16    1
     9    10     4    1
    10    16    17   ar
    11    19    22    1
    12    19    18   ar
    13    15    13    1
    14    13     8    1
    15    13    14    1
    16     8     7    1
    17    17    18   ar
    18    18    20    1
    19     4     3   ar
    20     4     5   ar
    21     3     2   ar
    22     7     5    1
    23     5     6   ar
    24     2     1   ar
    25     6     1   ar
    26     1    24    1
    27    26    25    2
    28    25    24    1
    29    25    27    1
    30    27    28   ar
    31    27    33   ar
    32    28    29   ar
    33    33    31   ar
    34    29    30   ar
    35    31    30   ar
    36    30    32    1
