@<TRIPOS>MOLECULE
ZINC47353136_replica-1.pdb
 21 21 0 0 0
SMALL
GASTEIGER

@<TRIPOS>ATOM
      1  N1         8.3640   35.7240   56.9910 N.am    0  <0>0       -0.2686
      2  C8         7.3660   34.8270   56.8750 C.2     0  <0>0        0.3045
      3  O1         6.9020   34.3020   57.8680 O.2     0  <0>0       -0.2525
      4  N2         6.8820   34.5110   55.6570 N.am    0  <0>0       -0.2878
      5  H7         8.6900   36.1910   56.2050 H       0  <0>0        0.1564
      6  H8         7.2520   34.9300   54.8650 H       0  <0>0        0.1510
      7  C7         8.9320   35.9830   58.2460 C.ar    0  <0>0        0.0477
      8  C2         8.6630   37.1800   58.8950 C.ar    0  <0>0       -0.0061
      9  C1         7.7600   38.2020   58.2530 C.3     0  <0>0        0.0324
     10  C3         9.2200   37.4310   60.1340 C.ar    0  <0>0        0.0266
     11  C4        10.0480   36.4930   60.7250 C.ar    0  <0>0        0.1399
     12  C5        10.3230   35.3020   60.0760 C.ar    0  <0>0        0.0309
     13  F4        10.5920   36.7410   61.9380 F       0  <0>0       -0.2042
     14  C6         9.7690   35.0460   58.8360 C.ar    0  <0>0        0.0167
     15  C9         5.7960   33.5360   55.5320 C.3     0  <0>0        0.1028
     16  C10        4.6330   34.1640   54.7610 C.3     0  <0>0        0.0867
     17  S1         3.2150   34.3730   55.8720 S.3     0  <0>0       -0.0396
     18  C11        3.3790   36.0750   56.4780 C.3     0  <0>0        0.4438
     19  F1         3.7960   36.9050   55.4320 F       0  <0>0       -0.1602
     20  F2         2.1440   36.5200   56.9620 F       0  <0>0       -0.1602
     21  F3         4.3260   36.1150   57.5080 F       0  <0>0       -0.1602
@<TRIPOS>BOND
     1    16    15    1
     2    16    17    1
     3     6     4    1
     4    19    18    1
     5    15     4    1
     6     4     2   am
     7    17    18    1
     8     5     1    1
     9    18    20    1
    10    18    21    1
    11     2     1   am
    12     2     3    2
    13     1     7    1
    14     7    14   ar
    15     7     8   ar
    16     9     8    1
    17    14    12   ar
    18     8    10   ar
    19    12    11   ar
    20    10    11   ar
    21    11    13    1
