@<TRIPOS>MOLECULE
ZINC00278014_replica-1.pdb
 22 25 0 0 0
SMALL
GASTEIGER

@<TRIPOS>ATOM
      1  C11       -0.5950   29.7160   54.6130 C.3     0  <0>0        0.1165
      2  C10       -0.2450   28.2560   54.4850 C.ar    0  <0>0       -0.0026
      3  C4        -0.6030   27.5410   53.3290 C.ar    0  <0>0       -0.0024
      4  C3        -1.2890   28.1630   52.2710 C.ar    0  <0>0       -0.0003
      5  C5        -0.2650   26.1690   53.2280 C.ar    0  <0>0       -0.0003
      6  C2        -1.6190   27.4400   51.1660 C.ar    0  <0>0       -0.0000
      7  C1        -1.2860   26.0890   51.0660 C.ar    0  <0>0       -0.0000
      8  C6        -0.6230   25.4550   52.0720 C.ar    0  <0>0       -0.0000
      9  C7         0.4200   25.5480   54.2860 C.ar    0  <0>0       -0.0000
     10  C8         0.7490   26.2720   55.3910 C.ar    0  <0>0       -0.0003
     11  C9         0.4120   27.6190   55.4930 C.ar    0  <0>0       -0.0026
     12  N1         0.6120   30.4810   54.9390 N.pl3   0  <0>0       -0.2993
     13  H10        1.3870   30.4340   54.3590 H       0  <0>0        0.1500
     14  C12        0.6440   31.2670   56.0730 C.2     0  <0>0        0.2118
     15  S1         0.4330   30.7820   57.7790 S.3     0  <0>0       -0.0380
     16  C18        0.6290   32.3960   58.4960 C.2     0  <0>0        0.0587
     17  C13        0.8380   33.2080   57.3580 C.2     0  <0>0        0.1390
     18  C17        0.6060   32.9010   59.7710 C.2     0  <0>0       -0.0123
     19  N2         0.8320   32.5640   56.1700 N.2     0  <0>0       -0.3803
     20  C14        1.0280   34.5870   57.6010 C.2     0  <0>0        0.0284
     21  C15        1.0040   35.0830   58.8790 C.2     0  <0>0       -0.0188
     22  C16        0.7940   34.2570   59.9730 C.3     0  <0>0        0.0527
@<TRIPOS>BOND
     1     7     6   ar
     2     7     8   ar
     3     6     4   ar
     4     8     5   ar
     5     4     3   ar
     6     5     3   ar
     7     5     9   ar
     8     3     2   ar
     9     9    10   ar
    10    13    12    1
    11     2     1    1
    12     2    11   ar
    13     1    12    1
    14    12    14    1
    15    10    11   ar
    16    14    19    2
    17    14    15    1
    18    19    17    2
    19    17    20    1
    20    17    16    1
    21    20    21    2
    22    15    16    1
    23    16    18    2
    24    21    22    1
    25    18    22    1
