@<TRIPOS>MOLECULE
ZINC62610410_replica-1.pdb
 19 20 0 0 0
SMALL
GASTEIGER

@<TRIPOS>ATOM
      1  C7        -0.3230   28.9010   55.4890 C.3     0  <0>0        0.1789
      2  C8         0.1850   30.2820   55.4450 C.1     0  <0>0        0.0846
      3  N1         0.5780   31.3470   55.4090 N.1     0  <0>0       -0.1951
      4  C3        -0.7740   28.4860   54.1120 C.ar    0  <0>0        0.0098
      5  C2        -1.6210   29.3020   53.3880 C.ar    0  <0>0        0.0003
      6  C1        -2.0340   28.9230   52.1240 C.ar    0  <0>0        0.0294
      7  C6        -1.5990   27.7250   51.5840 C.ar    0  <0>0        0.1410
      8  C5        -0.7500   26.9070   52.3100 C.ar    0  <0>0        0.0407
      9  F1        -2.0020   27.3530   50.3500 F       0  <0>0       -0.2041
     10  C4        -0.3370   27.2880   53.5740 C.ar    0  <0>0        0.0573
     11 Cl          0.7270   26.2640   54.4850 Cl      0  <0>0       -0.0825
     12  C9        -1.4880   28.8250   56.4420 C.2     0  <0>0        0.2251
     13  O1        -2.2330   29.7770   56.5680 O.2     0  <0>0       -0.2866
     14  C10       -1.7140   27.6490   57.1910 C.ar    0  <0>0        0.1819
     15  O2        -0.8530   26.6180   57.3310 O.2     0  <0>0       -0.4440
     16  C13       -1.4040   25.6820   58.1130 C.ar    0  <0>0        0.1792
     17  C12       -2.6410   26.0890   58.4860 C.ar    0  <0>0        0.0477
     18 Br         -0.5900   24.0490   58.6100 Br      0  <0>0       -0.0078
     19  C11       -2.8550   27.3460   57.9060 C.ar    0  <0>0        0.0442
@<TRIPOS>BOND
     1     9     7    1
     2     7     6   ar
     3     7     8   ar
     4     6     5   ar
     5     8    10   ar
     6     5     4   ar
     7    10     4   ar
     8    10    11    1
     9     4     1    1
    10     3     2    3
    11     2     1    1
    12     1    12    1
    13    12    13    2
    14    12    14    1
    15    14    15   ar
    16    14    19   ar
    17    15    16   ar
    18    19    17   ar
    19    16    17   ar
    20    16    18    1
