@<TRIPOS>MOLECULE
ZINC17370655_replica-1.pdb
 27 30 0 0 0
SMALL
GASTEIGER

@<TRIPOS>ATOM
      1  C7         8.7390   36.1850   58.9140 C.2     0  <0>0        0.1488
      2  C8         7.5870   35.4920   58.6950 C.3     0  <0>0        0.2093
      3  N1         6.9850   36.0280   57.5610 N.pl3   0  <0>0       -0.2350
      4  C9         5.8470   35.8230   56.8080 C.2     0  <0>0        0.0766
      5  C10        5.5940   36.5680   55.7360 C.2     0  <0>0        0.0553
      6  S1         7.0030   37.6670   55.7070 S.3     0  <0>0       -0.0379
      7  C11        7.8270   37.0320   57.1480 C.2     0  <0>0        0.2196
      8  N2         8.8550   37.1200   57.9390 N.2     0  <0>0       -0.3811
      9  N3         7.0960   34.4400   59.4710 N.am    0  <0>0       -0.2807
     10  C12        7.3130   33.1660   59.0910 C.2     0  <0>0        0.2477
     11  O1         7.8430   32.9310   58.0210 O.2     0  <0>0       -0.2701
     12  H7         6.5990   34.6270   60.2830 H       0  <0>0        0.1516
     13  C13        6.9090   32.0530   59.9730 C.ar    0  <0>0        0.0597
     14  C18        5.6310   31.5000   59.8640 C.ar    0  <0>0        0.0412
     15  C17        5.2580   30.4630   60.6950 C.ar    0  <0>0        0.0365
     16 Br          4.4120   32.1730   58.5840 Br      0  <0>0       -0.0488
     17  C16        6.1500   29.9690   61.6330 C.ar    0  <0>0        0.1406
     18  C15        7.4210   30.5110   61.7430 C.ar    0  <0>0        0.0298
     19  F1         5.7790   28.9540   62.4450 F       0  <0>0       -0.2042
     20  C14        7.8050   31.5460   60.9180 C.ar    0  <0>0        0.0073
     21  C6         9.6970   35.9550   60.0210 C.ar    0  <0>0        0.0290
     22  C1         9.8260   36.8960   61.0430 C.ar    0  <0>0        0.0046
     23  C2        10.7160   36.6740   62.0730 C.ar    0  <0>0        0.0297
     24  C3        11.4880   35.5240   62.0900 C.ar    0  <0>0        0.1401
     25  C4        11.3670   34.5880   61.0760 C.ar    0  <0>0        0.0297
     26  F2        12.3620   35.3150   63.0980 F       0  <0>0       -0.2042
     27  C5        10.4760   34.7980   60.0430 C.ar    0  <0>0        0.0046
@<TRIPOS>BOND
     1     6     5    1
     2     6     7    1
     3     5     4    2
     4     4     3    1
     5     7     3    1
     6     7     8    2
     7     3     2    1
     8     8     1    2
     9    11    10    2
    10    16    14    1
    11     2     1    1
    12     2     9    1
    13     1    21    1
    14    10     9   am
    15    10    13    1
    16     9    12    1
    17    14    13   ar
    18    14    15   ar
    19    13    20   ar
    20    21    27   ar
    21    21    22   ar
    22    27    25   ar
    23    15    17   ar
    24    20    18   ar
    25    22    23   ar
    26    25    24   ar
    27    17    18   ar
    28    17    19    1
    29    23    24   ar
    30    24    26    1
