@<TRIPOS>MOLECULE
ZINC65877656_replica-1.pdb
 21 22 0 0 0
SMALL
GASTEIGER

@<TRIPOS>ATOM
      1  N1         8.1710   35.2220   60.0090 N.am    0  <0>0       -0.2536
      2  C8         8.3810   36.1340   61.1360 C.3     0  <0>0        0.1203
      3  C9         9.0240   34.2010   59.8000 C.2     0  <0>0        0.2549
      4  O1         8.9060   33.5010   58.8130 O.2     0  <0>0       -0.2695
      5  C10       10.1020   33.9310   60.7700 C.ar    0  <0>0        0.0815
      6  C15       10.0540   32.7850   61.5720 C.ar    0  <0>0        0.1475
      7  C14       11.0680   32.5350   62.4750 C.ar    0  <0>0        0.0666
      8  F1         9.0220   31.9210   61.4580 F       0  <0>0       -0.2039
      9  C13       12.1270   33.4260   62.5950 C.ar    0  <0>0        0.1410
     10  C12       12.1740   34.5690   61.8050 C.ar    0  <0>0        0.0372
     11  C11       11.1700   34.8240   60.8970 C.ar    0  <0>0        0.0099
     12  O2        13.1190   33.1790   63.4870 O.3     0  <0>0       -0.4714
     13  C16       13.6890   31.8690   63.4780 C.3     0  <0>0        0.2525
     14  C7         7.0830   35.4120   59.1490 C.ar    0  <0>0        0.0502
     15  C2         7.2180   36.2140   58.0250 C.ar    0  <0>0       -0.0077
     16  C1         8.5350   36.8830   57.7270 C.3     0  <0>0        0.0323
     17  C3         6.1430   36.3950   57.1740 C.ar    0  <0>0        0.0037
     18  C4         4.9340   35.7820   57.4460 C.ar    0  <0>0        0.0343
     19  C5         4.7950   34.9870   58.5710 C.ar    0  <0>0        0.0080
     20 Br          3.4660   36.0320   56.2820 Br      0  <0>0       -0.0490
     21  C6         5.8650   34.8020   59.4230 C.ar    0  <0>0        0.0151
@<TRIPOS>BOND
     1    20    18    1
     2    17    18   ar
     3    17    15   ar
     4    18    19   ar
     5    16    15    1
     6    15    14   ar
     7    19    21   ar
     8     4     3    2
     9    14    21   ar
    10    14     1    1
    11     3     1   am
    12     3     5    1
    13     1     2    1
    14     5    11   ar
    15     5     6   ar
    16    11    10   ar
    17     8     6    1
    18     6     7   ar
    19    10     9   ar
    20     7     9   ar
    21     9    12    1
    22    13    12    1
