@<TRIPOS>MOLECULE
ZINC08470069_replica-1.pdb
 27 30 0 0 0
SMALL
GASTEIGER

@<TRIPOS>ATOM
      1  C11        4.0400   35.2240   54.6550 C.3     0  <0>0       -0.0541
      2  C4         5.3640   35.1190   55.3670 C.ar    0  <0>0       -0.0400
      3  C3         5.9590   33.8840   55.5370 C.ar    0  <0>0        0.0337
      4  C2         7.1800   33.7850   56.1860 C.ar    0  <0>0        0.1725
      5  C7         7.8010   34.9320   56.6710 C.ar    0  <0>0        0.1788
      6  C6         7.1960   36.1680   56.5030 C.ar    0  <0>0        0.0711
      7  C5         5.9770   36.2590   55.8540 C.ar    0  <0>0        0.0036
      8 Br          8.0360   37.7290   57.1590 Br      0  <0>0       -0.0457
      9  O1         7.7690   32.5700   56.3490 O.3     0  <0>0       -0.4684
     10  C1         6.9340   31.4970   56.7890 C.3     0  <0>0        0.2526
     11  O2         8.9980   34.8400   57.3100 O.3     0  <0>0       -0.4671
     12  C8         8.9720   34.4660   58.6880 C.3     0  <0>0        0.2320
     13  C9        10.1120   35.1340   59.4120 C.2     0  <0>0        0.0207
     14  C10        9.8850   36.1880   60.1580 C.2     0  <0>0       -0.0011
     15  N1         3.0310   34.4400   55.3920 N.4     0  <0>0        0.3878
     16  H28        3.1850   33.4400   55.2160 H       0  <0>0       -0.0839
     17  H29        2.0920   34.7030   55.0670 H       0  <0>0       -0.0839
     18  C12        3.1360   34.7020   56.8400 C.3     0  <0>0       -0.0613
     19  C20        2.1330   35.7910   57.2280 C.3     0  <0>0       -0.0194
     20  C19        0.7170   35.3230   56.8880 C.3     0  <0>0       -0.0020
     21  C21        2.2350   36.0660   58.7290 C.3     0  <0>0       -0.0020
     22  C17        0.4030   34.0410   57.6630 C.3     0  <0>0       -0.0001
     23  C16        0.5040   34.3160   59.1650 C.3     0  <0>0       -0.0000
     24  C18        1.4060   32.9530   57.2750 C.3     0  <0>0       -0.0020
     25  C15        1.9210   34.7850   59.5040 C.3     0  <0>0       -0.0001
     26  C14        2.9240   33.6960   59.1170 C.3     0  <0>0       -0.0020
     27  C13        2.8230   33.4210   57.6150 C.3     0  <0>0       -0.0194
@<TRIPOS>BOND
     1     1     2    1
     2     1    15    1
     3    17    15    1
     4    16    15    1
     5     2     3   ar
     6     2     7   ar
     7    15    18    1
     8     3     4   ar
     9     7     6   ar
    10     4     9    1
    11     4     5   ar
    12     9    10    1
    13     6     5   ar
    14     6     8    1
    15     5    11    1
    16    18    19    1
    17    18    27    1
    18    20    19    1
    19    20    22    1
    20    19    21    1
    21    24    27    1
    22    24    22    1
    23    11    12    1
    24    27    26    1
    25    22    23    1
    26    12    13    1
    27    21    25    1
    28    26    25    1
    29    23    25    1
    30    13    14    2
