@<TRIPOS>MOLECULE
ZINC37139941_replica-1.pdb
 21 21 0 0 0
SMALL
GASTEIGER

@<TRIPOS>ATOM
      1  N1         8.2120   35.9890   57.2040 N.pl3   0  <0>0       -0.3327
      2  H20        8.5420   36.4630   56.4240 H       0  <0>0        0.1468
      3  C5         6.9710   35.2180   57.1220 C.3     0  <0>0        0.0691
      4  C4         5.7740   36.1700   57.1680 C.3     0  <0>0        0.0195
      5  C2         5.0390   35.9980   58.4990 C.3     0  <0>0        0.0016
      6  C1         3.5760   35.6420   58.2310 C.3     0  <0>0        0.0001
      7  C3         5.6970   34.8770   59.3060 C.3     0  <0>0        0.0001
      8  C6         6.9450   34.4300   55.8100 C.3     0  <0>0        0.0195
      9  C7         6.7290   32.9460   56.1110 C.3     0  <0>0        0.0016
     10  C8         7.6420   32.5200   57.2620 C.3     0  <0>0        0.0001
     11  C9         5.2690   32.7120   56.5040 C.3     0  <0>0        0.0001
     12  C10        8.9240   36.0440   58.4050 C.ar    0  <0>0        0.0674
     13  C15        8.8820   37.1900   59.1870 C.ar    0  <0>0        0.1563
     14  C14        9.5820   37.2390   60.3780 C.ar    0  <0>0        0.0320
     15  C13       10.3320   36.1510   60.7850 C.ar    0  <0>0        0.0363
     16  C12       10.3810   35.0090   60.0050 C.ar    0  <0>0        0.0081
     17 Br         11.2940   36.2240   62.4110 Br      0  <0>0       -0.0489
     18  C11        9.6790   34.9520   58.8170 C.ar    0  <0>0        0.0165
     19  N2         8.0840   38.3570   58.7490 N.pl3   0  <0>0        0.0589
     20  O1         8.4160   38.9830   57.7690 O.2     0  <0>0       -0.1261
     21  O2         7.1010   38.6860   59.3710 O.2     0  <0>0       -0.1261
@<TRIPOS>BOND
     1     8     9    1
     2     8     3    1
     3     9    11    1
     4     9    10    1
     5     2     1    1
     6     3     4    1
     7     3     1    1
     8     4     5    1
     9     1    12    1
    10    20    19    2
    11     6     5    1
    12    12    18   ar
    13    12    13   ar
    14     5     7    1
    15    19    13    1
    16    19    21    2
    17    18    16   ar
    18    13    14   ar
    19    16    15   ar
    20    14    15   ar
    21    15    17    1
