@<TRIPOS>MOLECULE
ZINC63655134_replica-1.pdb
 29 31 0 0 0
SMALL
GASTEIGER

@<TRIPOS>ATOM
      1  N2         0.5800   31.4370   57.2620 N.am    0  <0>0       -0.2867
      2  C11        0.5940   30.8950   55.9020 C.3     0  <0>0        0.0931
      3  C10       -0.6430   30.0190   55.6890 C.3     0  <0>0        0.0275
      4  C7        -0.2140   28.6090   55.3790 C.3     0  <0>0        0.0431
      5  C6         0.5600   27.6750   56.2830 C.3     0  <0>0        0.0731
      6  N1         0.7260   26.4290   55.5260 N.pl3   0  <0>0       -0.3340
      7  C22       -0.2260   27.4110   57.5680 C.3     0  <0>0        0.0215
      8  C5         0.1530   26.5710   54.3560 C.ar    0  <0>0        0.0406
      9  H30        1.1840   25.6330   55.8400 H       0  <0>0        0.1468
     10  C4         0.0220   25.6840   53.2520 C.ar    0  <0>0        0.0137
     11  C8        -0.4410   27.9220   54.2370 C.ar    0  <0>0       -0.0081
     12  C3        -0.6300   26.0760   52.1360 C.ar    0  <0>0       -0.0030
     13  C2        -1.2010   27.3480   52.0000 C.ar    0  <0>0       -0.0221
     14  C1        -1.9090   27.7010   50.7170 C.3     0  <0>0        0.0310
     15  C9        -1.1270   28.2700   52.9860 C.ar    0  <0>0       -0.0073
     16  C12       -0.2870   32.5710   57.5900 C.3     0  <0>0        0.1256
     17  C13        0.5530   33.8070   57.7850 C.ar    0  <0>0        0.0272
     18  S1         1.0680   34.5880   59.3060 S.2     0  <0>0       -0.0891
     19  C16        1.9970   35.9360   58.5940 C.ar    0  <0>0        0.0352
     20  C15        1.8490   35.7080   57.2670 C.ar    0  <0>0        0.0072
     21  C14        1.1090   34.6170   56.8510 C.ar    0  <0>0        0.0044
     22  C17        1.3640   30.8920   58.2130 C.2     0  <0>0        0.1348
     23  S2         0.6760   30.3550   59.6850 S.2     0  <0>0       -0.0186
     24  N3         2.6900   30.7710   58.0050 N.am    0  <0>0       -0.3191
     25  H17        3.0690   31.0060   57.1440 H       0  <0>0        0.1483
     26  C18        3.5590   30.2850   59.0800 C.3     0  <0>0        0.0559
     27  C19        5.0160   30.3230   58.6130 C.3     0  <0>0        0.0196
     28  C20        3.3950   31.1750   60.3120 C.3     0  <0>0        0.0196
     29  C21        3.1750   28.8470   59.4350 C.3     0  <0>0        0.0196
@<TRIPOS>BOND
     1    14    13    1
     2    13    12   ar
     3    13    15   ar
     4    12    10   ar
     5    15    11   ar
     6    10     8   ar
     7    11     8   ar
     8    11     4    1
     9     8     6    1
    10     4     3    1
    11     4     5    1
    12     6     9    1
    13     6     5    1
    14     3     2    1
    15     2     1    1
    16     5     7    1
    17    21    20   ar
    18    21    17   ar
    19    25    24    1
    20     1    16    1
    21     1    22    1
    22    20    19   ar
    23    16    17    1
    24    17    18   ar
    25    24    22    1
    26    24    26    1
    27    22    23    2
    28    19    18   ar
    29    27    26    1
    30    26    29    1
    31    26    28    1
