@<TRIPOS>MOLECULE
ZINC14475320_replica-1.pdb
 37 42 0 0 0
SMALL
GASTEIGER

@<TRIPOS>ATOM
      1  C8         3.4560   34.0210   58.0430 C.ar    0  <0>0        0.1249
      2  C9         3.2720   34.4230   56.7320 C.ar    0  <0>0        0.0214
      3  C10        2.5630   33.6480   55.9030 C.ar    0  <0>0        0.0154
      4  C11        2.0010   32.4550   56.3410 C.ar    0  <0>0        0.0408
      5  C12        2.1680   32.0320   57.6350 C.ar    0  <0>0       -0.0080
      6  C13        2.9090   32.8370   58.4910 C.ar    0  <0>0        0.0171
      7  C14        1.5970   30.7560   58.1650 C.3     0  <0>0        0.0255
      8  C15        0.3970   31.0100   59.0460 C.3     0  <0>0        0.0045
      9  C16       -0.5020   30.0740   58.8690 C.3     0  <0>0        0.0004
     10  C17       -0.0210   29.0620   57.8470 C.3     0  <0>0        0.0023
     11  C18        1.0570   29.8470   57.0440 C.3     0  <0>0        0.0262
     12  C19        0.3220   30.6890   55.9970 C.3     0  <0>0        0.0921
     13  N2         1.2520   31.6820   55.4480 N.pl3   0  <0>0       -0.3308
     14  H18        1.3450   31.7990   54.4900 H       0  <0>0        0.1471
     15  S1         4.3930   35.0280   59.1450 S.O2    0  <0>0        0.0736
     16  O1         3.9260   36.3590   58.9750 O.2     0  <0>0       -0.1499
     17  O2         4.3790   34.3710   60.4050 O.2     0  <0>0       -0.1499
     18  N1         5.9620   35.0040   58.6170 N.pl3   0  <0>0       -0.2156
     19  H10        6.4110   34.1580   58.4690 H       0  <0>0        0.1737
     20  C7         6.6380   36.2040   58.3820 C.ar    0  <0>0        0.0568
     21  C2         6.7700   36.6870   57.0870 C.ar    0  <0>0       -0.0075
     22  C1         6.1850   35.9170   55.9300 C.3     0  <0>0        0.0324
     23  C3         7.4350   37.8760   56.8590 C.ar    0  <0>0       -0.0030
     24  C4         7.9780   38.5800   57.9180 C.ar    0  <0>0       -0.0006
     25  C5         7.8520   38.1000   59.2090 C.ar    0  <0>0       -0.0030
     26  C6         7.1840   36.9140   59.4430 C.ar    0  <0>0       -0.0075
     27  C30        7.0470   36.3910   60.8510 C.3     0  <0>0        0.0324
     28  C20       -0.1750   29.7970   54.8890 C.ar    0  <0>0       -0.0046
     29  C29        0.2780   28.5160   54.8060 C.ar    0  <0>0       -0.0027
     30  C28       -0.1840   27.6810   53.7750 C.ar    0  <0>0       -0.0003
     31  C23       -1.1150   28.1870   52.8340 C.ar    0  <0>0       -0.0000
     32  C27        0.2600   26.3530   53.6570 C.ar    0  <0>0       -0.0000
     33  C22       -1.5600   29.5160   52.9520 C.ar    0  <0>0       -0.0003
     34  C24       -1.5770   27.3530   51.8030 C.ar    0  <0>0       -0.0000
     35  C21       -1.0950   30.2940   53.9670 C.ar    0  <0>0       -0.0027
     36  C25       -1.1260   26.0710   51.7200 C.ar    0  <0>0       -0.0000
     37  C26       -0.2100   25.5730   52.6450 C.ar    0  <0>0       -0.0000
@<TRIPOS>BOND
     1    36    34   ar
     2    36    37   ar
     3    34    31   ar
     4    37    32   ar
     5    31    33   ar
     6    31    30   ar
     7    33    35   ar
     8    32    30   ar
     9    30    29   ar
    10    35    28   ar
    11    14    13    1
    12    29    28   ar
    13    28    12    1
    14    13    12    1
    15    13     4    1
    16     3     4   ar
    17     3     2   ar
    18    22    21    1
    19    12    11    1
    20     4     5   ar
    21     2     1   ar
    22    23    21   ar
    23    23    24   ar
    24    11    10    1
    25    11     7    1
    26    21    20   ar
    27     5     7    1
    28     5     6   ar
    29    10     9    1
    30    24    25   ar
    31     1     6   ar
    32     1    15    1
    33     7     8    1
    34    20    18    1
    35    20    26   ar
    36    19    18    1
    37    18    15    1
    38     9     8    1
    39    16    15    2
    40    15    17    2
    41    25    26   ar
    42    26    27    1
