@<TRIPOS>MOLECULE
ZINC52488559_replica-1.pdb
 24 25 0 0 0
SMALL
GASTEIGER

@<TRIPOS>ATOM
      1  C8         9.2280   35.0220   58.6160 C.ar    0  <0>0        0.0622
      2  C9        10.0010   34.6860   59.7200 C.ar    0  <0>0        0.0156
      3  C10       10.3110   35.6480   60.6630 C.ar    0  <0>0        0.0013
      4  C11        9.8520   36.9430   60.5080 C.ar    0  <0>0        0.0014
      5  C12        9.0820   37.2800   59.4100 C.ar    0  <0>0        0.0199
      6  C13        8.7740   36.3250   58.4610 C.ar    0  <0>0        0.1272
      7  N2         8.9130   34.0530   57.6610 N.pl3   0  <0>0       -0.3316
      8  H13        9.3750   34.0440   56.8080 H       0  <0>0        0.1468
      9  C2         7.8850   33.0500   57.9470 C.3     0  <0>0        0.0891
     10  C1         6.9750   32.8900   56.7280 C.3     0  <0>0        0.0230
     11  C3         8.5520   31.7110   58.2650 C.3     0  <0>0        0.1128
     12  N1         7.8980   31.1020   59.4260 N.am    0  <0>0       -0.2778
     13  C7         7.2100   29.9470   59.3880 C.2     0  <0>0        0.2257
     14  C6         6.6660   29.6210   60.7620 C.3     0  <0>0        0.0870
     15  O1         7.0500   29.2650   58.3990 O.2     0  <0>0       -0.2749
     16  C5         6.7630   30.9580   61.5330 C.3     0  <0>0        0.0311
     17  C4         7.9030   31.6750   60.7760 C.3     0  <0>0        0.0940
     18  S1         7.7980   36.7590   57.0590 S.O2    0  <0>0        0.0932
     19  O2         8.5060   36.2280   55.9460 O.2     0  <0>0       -0.1611
     20  O3         6.4900   36.3020   57.3710 O.2     0  <0>0       -0.1611
     21  C14        7.8310   38.5720   57.0120 C.3     0  <0>0        0.5262
     22  F1         7.2910   39.0800   58.1980 F       0  <0>0       -0.1500
     23  F2         9.1530   39.0110   56.8760 F       0  <0>0       -0.1500
     24  F3         7.0760   39.0240   55.9240 F       0  <0>0       -0.1500
@<TRIPOS>BOND
     1    24    21    1
     2    19    18    2
     3    10     9    1
     4     8     7    1
     5    23    21    1
     6    21    18    1
     7    21    22    1
     8    18    20    2
     9    18     6    1
    10     7     9    1
    11     7     1    1
    12     9    11    1
    13    11    12    1
    14    15    13    2
    15     6     1   ar
    16     6     5   ar
    17     1     2   ar
    18    13    12   am
    19    13    14    1
    20     5     4   ar
    21    12    17    1
    22     2     3   ar
    23     4     3   ar
    24    14    16    1
    25    17    16    1
