@<TRIPOS>MOLECULE
ZINC38646036_replica-1.pdb
 26 28 0 0 0
SMALL
GASTEIGER

@<TRIPOS>ATOM
      1  N2         7.9660   37.1210   58.5210 N.pl3   0  <0>0       -0.1269
      2  C8         6.7550   36.6640   58.0890 C.ar    0  <0>0        0.0852
      3  C7         6.5230   36.4740   56.7220 C.ar    0  <0>0        0.0190
      4  C6         5.3010   36.0130   56.2900 C.ar    0  <0>0        0.0159
      5  C5         4.2940   35.7350   57.2120 C.ar    0  <0>0        0.0476
      6  C10        4.5180   35.9280   58.5710 C.ar    0  <0>0        0.0116
      7  C9         5.7400   36.3850   59.0110 C.ar    0  <0>0       -0.0039
      8  C11        5.9840   36.5880   60.4850 C.3     0  <0>0        0.0325
      9  N1         3.0580   35.2700   56.7710 N.pl3   0  <0>0       -0.3075
     10  C2         1.8360   36.0030   57.1100 C.3     0  <0>0        0.0908
     11  C1         0.9700   35.1490   58.0390 C.3     0  <0>0        0.0232
     12  C3         2.9790   34.0480   55.9660 C.3     0  <0>0        0.0908
     13  C4         3.5350   32.8710   56.7700 C.3     0  <0>0        0.0232
     14  N3         8.9950   36.3430   58.4950 N.pl3   0  <0>0       -0.1069
     15  C12        9.6880   36.0890   59.6460 C.ar    0  <0>0        0.1902
     16  N5         9.8190   36.9130   60.6690 N.ar    0  <0>0       -0.1543
     17  N4        10.5970   36.2820   61.6480 N.ar    0  <0>0       -0.2744
     18  C14       10.9440   35.0480   61.1800 C.ar    0  <0>0        0.0768
     19  H1        10.8500   36.6580   62.5050 H       0  <0>0        0.1890
     20  C13       10.3910   34.9050   59.9420 C.ar    0  <0>0        0.0578
     21  C15       11.7670   34.0430   61.8900 C.ar    0  <0>0        0.0171
     22  C20       11.1860   32.8650   62.3560 C.ar    0  <0>0        0.0015
     23  C19       11.9600   31.9290   63.0120 C.ar    0  <0>0        0.0000
     24  C18       13.3070   32.1640   63.2190 C.ar    0  <0>0        0.0000
     25  C17       13.8880   33.3350   62.7660 C.ar    0  <0>0        0.0000
     26  C16       13.1260   34.2750   62.1030 C.ar    0  <0>0        0.0015
@<TRIPOS>BOND
     1    12    13    1
     2    12     9    1
     3     4     3   ar
     4     4     5   ar
     5     3     2   ar
     6     9    10    1
     7     9     5    1
     8    10    11    1
     9     5     6   ar
    10     2     1    1
    11     2     7   ar
    12    14     1    1
    13    14    15    1
    14     6     7   ar
    15     7     8    1
    16    15    20   ar
    17    15    16   ar
    18    20    18   ar
    19    16    17   ar
    20    18    17   ar
    21    18    21    1
    22    17    19    1
    23    21    26   ar
    24    21    22   ar
    25    26    25   ar
    26    22    23   ar
    27    25    24   ar
    28    23    24   ar
