@<TRIPOS>MOLECULE
ZINC36592004_replica-1.pdb
 26 26 0 0 0
SMALL
GASTEIGER

@<TRIPOS>ATOM
      1  C6         6.4380   35.3010   58.4070 C.3     0  <0>0        0.1743
      2  C5         5.1270   35.9940   58.6680 C.2     0  <0>0       -0.0020
      3  C4         4.0480   35.6200   58.0260 C.2     0  <0>0       -0.0286
      4  C3         2.6870   35.9880   58.5590 C.3     0  <0>0        0.0258
      5  C2         1.6760   36.0030   57.4110 C.3     0  <0>0        0.0047
      6  C1         0.6060   34.9390   57.6600 C.3     0  <0>0        0.0004
      7  C7         7.2750   35.3190   59.6600 C.2     0  <0>0        0.2448
      8  O1         6.7670   35.6050   60.7240 O.2     0  <0>0       -0.2729
      9  N1         8.5880   35.0190   59.5990 N.am    0  <0>0       -0.3044
     10  H11        8.9940   34.7900   58.7480 H       0  <0>0        0.1494
     11  C8         9.4010   35.0380   60.8170 C.3     0  <0>0        0.0716
     12  C13       10.3430   33.8320   60.8200 C.3     0  <0>0        0.0196
     13  C12       11.1930   33.8510   62.0920 C.3     0  <0>0        0.0017
     14  C11       12.0140   35.1410   62.1370 C.3     0  <0>0        0.0001
     15  C10       11.0710   36.3460   62.1350 C.3     0  <0>0        0.0017
     16  C9        10.2220   36.3270   60.8620 C.3     0  <0>0        0.0196
     17  N2         7.1520   35.9960   57.3330 N.am    0  <0>0       -0.2696
     18  C14        7.6260   35.3040   56.2790 C.2     0  <0>0        0.2455
     19  O2         8.5110   35.7740   55.5900 O.2     0  <0>0       -0.2702
     20  C15        7.0730   33.9780   55.9610 C.2     0  <0>0        0.0317
     21  C16        5.9650   33.8780   55.2340 C.2     0  <0>0        0.0000
     22  C17        7.7640   32.7350   56.4600 C.3     0  <0>0        0.0358
     23  C18        7.3530   37.4470   57.4070 C.3     0  <0>0        0.0614
     24  C19        6.7150   38.1110   56.1850 C.3     0  <0>0        0.0199
     25  C20        6.6990   37.9880   58.6800 C.3     0  <0>0        0.0199
     26  C21        8.8510   37.7540   57.4320 C.3     0  <0>0        0.0199
@<TRIPOS>BOND
     1    21    20    2
     2    19    18    2
     3    20    18    1
     4    20    22    1
     5    24    23    1
     6    18    17   am
     7    17    23    1
     8    17     1    1
     9    23    26    1
    10    23    25    1
    11     5     6    1
    12     5     4    1
    13     3     4    1
    14     3     2    2
    15     1     2    1
    16     1     7    1
    17    10     9    1
    18     9     7   am
    19     9    11    1
    20     7     8    2
    21    11    12    1
    22    11    16    1
    23    12    13    1
    24    16    15    1
    25    13    14    1
    26    15    14    1
