@<TRIPOS>MOLECULE
ZINC20432782_replica-1.pdb
 20 22 0 0 0
SMALL
GASTEIGER

@<TRIPOS>ATOM
      1  C7        11.3110   35.1420   61.6170 C.1     0  <0>0        0.1272
      2  N1        10.7470   35.0690   60.3930 N.2     0  <0>0       -0.3085
      3  C8        10.0400   36.1760   60.2650 C.2     0  <0>0        0.3170
      4  O1        10.2030   36.8770   61.3970 O.2     0  <0>0       -0.3109
      5  N2        10.9310   36.2720   62.1570 N.2     0  <0>0       -0.0068
      6  C6        12.2040   34.1310   62.2350 C.ar    0  <0>0        0.0773
      7  C1        13.5770   34.3600   62.3050 C.ar    0  <0>0        0.0142
      8  C2        14.4050   33.4160   62.8750 C.ar    0  <0>0        0.0373
      9  C3        13.8700   32.2430   63.3900 C.ar    0  <0>0        0.1337
     10  C4        12.5030   32.0110   63.3210 C.ar    0  <0>0        0.0373
     11  C5        11.6710   32.9500   62.7470 C.ar    0  <0>0        0.0142
     12  O2        14.6870   31.3170   63.9560 O.3     0  <0>0       -0.5055
     13  H9        15.1340   31.5070   64.9430 H       0  <0>0        0.2922
     14  C9         9.2270   36.5710   59.0940 C.ar    0  <0>0        0.0693
     15  C14        8.6850   37.8550   59.0190 C.ar    0  <0>0        0.0064
     16  C13        7.9280   38.2170   57.9250 C.ar    0  <0>0        0.0069
     17  C12        7.7050   37.3100   56.9020 C.ar    0  <0>0        0.0346
     18  C11        8.2410   36.0350   56.9720 C.ar    0  <0>0        0.0069
     19 Br          6.6670   37.8160   55.4050 Br      0  <0>0       -0.0490
     20  C10        9.0040   35.6630   58.0590 C.ar    0  <0>0        0.0064
@<TRIPOS>BOND
     1    19    17    1
     2    17    18   ar
     3    17    16   ar
     4    18    20   ar
     5    16    15   ar
     6    20    14   ar
     7    15    14   ar
     8    14     3    1
     9     3     2    2
    10     3     4    1
    11     2     1    2
    12     4     5    1
    13     1     5    2
    14     1     6    1
    15     6     7   ar
    16     6    11   ar
    17     7     8   ar
    18    11    10   ar
    19     8     9   ar
    20    10     9   ar
    21     9    12    1
    22    12    13    1
