@<TRIPOS>MOLECULE
ZINC37206740_replica-1.pdb
 20 22 0 0 0
SMALL
GASTEIGER

@<TRIPOS>ATOM
      1  C1        -0.5840   24.6080   51.3640 C.3     0  <0>0        0.0268
      2  C2        -0.7740   25.9930   51.9270 C.2     0  <0>0       -0.0370
      3  C3        -1.5850   26.8930   51.2540 C.3     0  <0>0        0.0487
      4  C4        -1.7610   28.1650   51.7700 C.2     0  <0>0       -0.0126
      5  C5        -1.1300   28.5150   52.9370 C.2     0  <0>0        0.0587
      6  C6        -0.2960   27.6250   53.6500 C.2     0  <0>0        0.1388
      7  C7        -0.1440   26.3330   53.0970 C.2     0  <0>0        0.0245
      8  N1         0.2540   28.1170   54.7810 N.2     0  <0>0       -0.3800
      9  C8         0.0330   29.3430   55.1980 C.2     0  <0>0        0.2152
     10  S1        -1.0620   29.9820   53.9380 S.3     0  <0>0       -0.0377
     11  N2         0.5200   29.9770   56.3230 N.pl3   0  <0>0       -0.2827
     12  H7         1.2180   30.6460   56.2390 H       0  <0>0        0.1551
     13  C9         0.0100   29.6560   57.5840 C.ar    0  <0>0        0.0550
     14  C14       -1.0940   28.8200   57.6950 C.ar    0  <0>0        0.0444
     15  C13       -1.5930   28.4990   58.9450 C.ar    0  <0>0        0.1436
     16  C12       -1.0010   29.0190   60.0840 C.ar    0  <0>0        0.0593
     17  F1        -2.6640   27.6820   59.0540 F       0  <0>0       -0.2041
     18  C11        0.0970   29.8570   59.9750 C.ar    0  <0>0        0.1436
     19  C10        0.6030   30.1760   58.7280 C.ar    0  <0>0        0.0444
     20  F2         0.6730   30.3620   61.0870 F       0  <0>0       -0.2041
@<TRIPOS>BOND
     1     3     4    1
     2     3     2    1
     3     1     2    1
     4     4     5    2
     5     2     7    2
     6     5     6    1
     7     5    10    1
     8     7     6    1
     9     6     8    2
    10    10     9    1
    11     8     9    2
    12     9    11    1
    13    12    11    1
    14    11    13    1
    15    13    14   ar
    16    13    19   ar
    17    14    15   ar
    18    19    18   ar
    19    15    17    1
    20    15    16   ar
    21    18    16   ar
    22    18    20    1
