@<TRIPOS>MOLECULE
ZINC39847191_replica-1.pdb
 25 28 0 0 0
SMALL
GASTEIGER

@<TRIPOS>ATOM
      1  N2         0.5750   33.0460   57.0580 N.2     0  <0>0       -0.1892
      2  C8        -0.0550   32.0460   56.4760 C.2     0  <0>0        0.1649
      3  N3        -1.3940   31.7360   56.5350 N.am    0  <0>0       -0.2636
      4  C9        -1.9130   30.6970   55.9030 C.2     0  <0>0        0.2379
      5  O1        -3.0940   30.4310   55.9600 O.2     0  <0>0       -0.2738
      6  C10       -0.9330   29.8570   55.1000 C.3     0  <0>0        0.1353
      7  S2         0.6290   30.7770   55.4210 S.3     0  <0>0       -0.0710
      8  H6        -1.9810   32.3020   57.0620 H       0  <0>0        0.1568
      9  C7         1.9050   33.2010   56.8810 C.2     0  <0>0        0.2469
     10  N1         2.5420   34.0290   56.0730 N.2     0  <0>0       -0.3760
     11  C5         3.8890   34.0740   56.0020 C.2     0  <0>0        0.1393
     12  C4         4.5790   33.1780   56.8510 C.2     0  <0>0        0.0590
     13  C6         4.6910   34.9050   55.1860 C.2     0  <0>0        0.0284
     14  C3         5.9490   33.1040   56.8930 C.2     0  <0>0       -0.0123
     15  S1         3.2500   32.3410   57.6820 S.3     0  <0>0       -0.0334
     16  C2         6.7020   33.9330   56.0810 C.3     0  <0>0        0.0527
     17  C1         6.0580   34.8250   55.2360 C.2     0  <0>0       -0.0188
     18  C11       -1.2830   29.8690   53.6100 C.3     0  <0>0        0.0468
     19  C12       -1.0790   28.4920   53.0340 C.ar    0  <0>0       -0.0208
     20  C17       -1.6820   28.1450   51.8400 C.ar    0  <0>0       -0.0034
     21  C16       -1.4910   26.8840   51.3080 C.ar    0  <0>0        0.0111
     22  C15       -0.7040   25.9630   51.9780 C.ar    0  <0>0        0.0577
     23  C14       -0.1060   26.3090   53.1770 C.ar    0  <0>0        0.0111
     24 Cl         -0.4680   24.3770   51.3160 Cl      0  <0>0       -0.0822
     25  C13       -0.2930   27.5720   53.7040 C.ar    0  <0>0       -0.0034
@<TRIPOS>BOND
     1    21    20   ar
     2    21    22   ar
     3    24    22    1
     4    20    19   ar
     5    22    23   ar
     6    19    18    1
     7    19    25   ar
     8    23    25   ar
     9    18     6    1
    10     6     7    1
    11     6     4    1
    12    13    17    2
    13    13    11    1
    14    17    16    1
    15     7     2    1
    16     4     5    2
    17     4     3   am
    18    11    10    2
    19    11    12    1
    20    10     9    2
    21    16    14    1
    22     2     3    1
    23     2     1    2
    24     3     8    1
    25    12    14    2
    26    12    15    1
    27     9     1    1
    28     9    15    1
