@<TRIPOS>MOLECULE
ZINC37787516_replica-1.pdb
 20 20 0 0 0
SMALL
GASTEIGER

@<TRIPOS>ATOM
      1  C9         6.1750   35.2050   58.9250 C.ar    0  <0>0        0.0734
      2  C10        5.6670   36.4150   59.4180 C.ar    0  <0>0        0.0931
      3  N2         4.3990   36.4890   59.1000 N.ar    0  <0>0       -0.1728
      4  N3         4.0530   35.3300   58.3930 N.ar    0  <0>0       -0.2559
      5  C11        5.1650   34.5550   58.2930 C.ar    0  <0>0        0.0701
      6  C12        5.2580   33.2170   57.6080 C.3     0  <0>0        0.0531
      7  C16        6.4470   37.4540   60.1830 C.3     0  <0>0        0.0553
      8  N1         7.5010   34.7480   59.0570 N.pl3   0  <0>0       -0.3322
      9  H18        7.6970   33.9870   59.6250 H       0  <0>0        0.1468
     10  C6         8.5830   35.4220   58.3360 C.3     0  <0>0        0.0691
     11  C5         8.5930   34.9550   56.8780 C.3     0  <0>0        0.0195
     12  C3         8.3320   36.1480   55.9580 C.3     0  <0>0        0.0016
     13  C4         6.9610   35.9930   55.2980 C.3     0  <0>0        0.0001
     14  C2         8.3600   37.4400   56.7780 C.3     0  <0>0        0.0001
     15  C1         7.3550   38.4360   56.1960 C.3     0  <0>0        0.0000
     16  C7         9.9230   35.0800   58.9900 C.3     0  <0>0        0.0195
     17  C8        10.1310   35.9670   60.2200 C.3     0  <0>0        0.0017
     18  C13        2.7280   35.0130   57.8540 C.3     0  <0>0        0.1050
     19  C14        1.6510   35.5700   58.7880 C.3     0  <0>0        0.0263
     20  C15        2.5770   35.6420   56.4680 C.3     0  <0>0        0.0263
@<TRIPOS>BOND
     1    13    12    1
     2    12    14    1
     3    12    11    1
     4    15    14    1
     5    20    18    1
     6    11    10    1
     7     6     5    1
     8    18     4    1
     9    18    19    1
    10     5     4   ar
    11     5     1   ar
    12    10    16    1
    13    10     8    1
    14     4     3   ar
    15     1     8    1
    16     1     2   ar
    17    16    17    1
    18     8     9    1
    19     3     2   ar
    20     2     7    1
