@<TRIPOS>MOLECULE
ZINC37025928_replica-1.pdb
 21 23 0 0 0
SMALL
GASTEIGER

@<TRIPOS>ATOM
      1  C8         9.5020   35.0990   60.4850 C.ar    0  <0>0        0.2452
      2  N1        10.0770   36.1410   61.0150 N.ar    0  <0>0       -0.1098
      3  N2        11.0910   35.7650   61.7130 N.ar    0  <0>0       -0.1072
      4  C9        11.1980   34.4580   61.6510 C.ar    0  <0>0        0.2497
      5  O1        10.1890   34.0120   60.8760 O.2     0  <0>0       -0.4179
      6  C7         8.2820   35.1100   59.5990 C.3     0  <0>0        0.1796
      7 Cl          6.8190   34.7490   60.5880 Cl      0  <0>0       -0.1001
      8  C4         8.1360   36.4680   58.9620 C.ar    0  <0>0        0.0014
      9  C3         7.4460   37.4690   59.6180 C.ar    0  <0>0       -0.0026
     10  C2         7.3140   38.7150   59.0350 C.ar    0  <0>0       -0.0003
     11  C1         7.8730   38.9590   57.7930 C.ar    0  <0>0       -0.0000
     12  C6         8.5640   37.9580   57.1370 C.ar    0  <0>0       -0.0003
     13  C5         8.6950   36.7120   57.7210 C.ar    0  <0>0       -0.0026
     14  C10       12.2280   33.6310   62.3130 C.ar    0  <0>0        0.0578
     15  C15       11.8950   32.3820   62.8380 C.ar    0  <0>0        0.0115
     16  C14       12.8630   31.6120   63.4500 C.ar    0  <0>0        0.0370
     17  C13       14.1610   32.0810   63.5550 C.ar    0  <0>0        0.0363
     18 Br         12.4140   29.9150   64.1530 Br      0  <0>0       -0.0489
     19  C12       14.4980   33.3230   63.0420 C.ar    0  <0>0        0.1408
     20  C11       13.5390   34.1010   62.4200 C.ar    0  <0>0        0.0344
     21  F1        15.7680   33.7740   63.1460 F       0  <0>0       -0.2042
@<TRIPOS>BOND
     1    12    13   ar
     2    12    11   ar
     3    13     8   ar
     4    11    10   ar
     5     8     6    1
     6     8     9   ar
     7    10     9   ar
     8     6     1    1
     9     6     7    1
    10     1     5   ar
    11     1     2   ar
    12     5     4   ar
    13     2     3   ar
    14     4     3   ar
    15     4    14    1
    16    14    20   ar
    17    14    15   ar
    18    20    19   ar
    19    15    16   ar
    20    19    21    1
    21    19    17   ar
    22    16    17   ar
    23    16    18    1
