@<TRIPOS>MOLECULE
ZINC66970823_replica-1.pdb
 25 27 0 0 0
SMALL
GASTEIGER

@<TRIPOS>ATOM
      1  C11        8.7230   34.0800   58.9070 C.3     0  <0>0        0.1060
      2  C8         9.6980   33.9670   60.0490 C.ar    0  <0>0       -0.0034
      3  C7         9.6830   32.8500   60.8630 C.ar    0  <0>0       -0.0030
      4  C6        10.5800   32.7460   61.9110 C.ar    0  <0>0       -0.0045
      5  C5        11.4900   33.7590   62.1450 C.ar    0  <0>0       -0.0222
      6  C10       11.5010   34.8790   61.3340 C.ar    0  <0>0       -0.0045
      7  C9        10.6090   34.9800   60.2830 C.ar    0  <0>0       -0.0030
      8  C4        12.4660   33.6450   63.2870 C.3     0  <0>0        0.0263
      9  C2        13.6240   32.7310   62.8800 C.3     0  <0>0        0.0044
     10  C1        14.9500   33.4640   63.0890 C.3     0  <0>0        0.0003
     11  C3        13.6000   31.4650   63.7380 C.3     0  <0>0        0.0003
     12  C12        7.4200   34.6450   59.4120 C.ar    0  <0>0        0.0257
     13  S1         7.1350   36.1130   60.3870 S.2     0  <0>0       -0.0891
     14  C15        5.3570   35.9950   60.5040 C.ar    0  <0>0        0.0352
     15  C14        5.1050   34.8600   59.8090 C.ar    0  <0>0        0.0072
     16  C13        6.1630   34.1670   59.2490 C.ar    0  <0>0        0.0043
     17  N1         9.2760   34.9690   57.8770 N.3     0  <0>0       -0.2862
     18  H19        9.3340   35.9190   58.2130 H       0  <0>0        0.1242
     19  C16        8.4870   34.8970   56.6390 C.3     0  <0>0        0.1174
     20  C17        8.1040   36.2890   56.2060 C.ar    0  <0>0        0.0958
     21  N3         7.6950   36.6350   55.0120 N.ar    0  <0>0       -0.1756
     22  N2         7.4400   38.0120   55.0200 N.ar    0  <0>0       -0.2746
     23  C19        7.7180   38.4790   56.2550 C.ar    0  <0>0        0.0921
     24  H2         7.1240   38.5380   54.2690 H       0  <0>0        0.1890
     25  C18        8.1310   37.4340   57.0080 C.ar    0  <0>0        0.0378
@<TRIPOS>BOND
     1    24    22    1
     2    21    22   ar
     3    21    20   ar
     4    22    23   ar
     5    20    19    1
     6    20    25   ar
     7    23    25   ar
     8    19    17    1
     9    17    18    1
    10    17     1    1
    11     1    12    1
    12     1     2    1
    13    16    12   ar
    14    16    15   ar
    15    12    13   ar
    16    15    14   ar
    17     2     7   ar
    18     2     3   ar
    19     7     6   ar
    20    13    14   ar
    21     3     4   ar
    22     6     5   ar
    23     4     5   ar
    24     5     8    1
    25     9    10    1
    26     9     8    1
    27     9    11    1
