@<TRIPOS>MOLECULE
ZINC59249413_replica-1.pdb
 28 30 0 0 0
SMALL
GASTEIGER

@<TRIPOS>ATOM
      1  C11        1.4760   31.7950   56.8850 C.ar    0  <0>0        0.0814
      2  C12        0.9060   32.0220   55.6290 C.ar    0  <0>0        0.0204
      3  C13       -0.0400   31.1500   55.1370 C.ar    0  <0>0        0.0161
      4  C14       -0.4300   30.0460   55.8870 C.ar    0  <0>0        0.0484
      5  C15        0.1350   29.8170   57.1380 C.ar    0  <0>0        0.0161
      6  C16        1.0870   30.6810   57.6340 C.ar    0  <0>0        0.0204
      7  N1         2.4170   32.6570   57.3770 N.2     0  <0>0       -0.2438
      8  C10        2.9150   33.5850   56.6090 C.2     0  <0>0        0.0988
      9  C7         3.9270   34.5120   57.1390 C.ar    0  <0>0        0.0193
     10  C6         4.9150   35.0300   56.2940 C.ar    0  <0>0        0.0047
     11  C5         5.8600   35.8980   56.7950 C.ar    0  <0>0        0.0370
     12  C4         5.8330   36.2610   58.1360 C.ar    0  <0>0        0.1392
     13  C9         4.8570   35.7460   58.9800 C.ar    0  <0>0        0.0370
     14  C8         3.9040   34.8810   58.4890 C.ar    0  <0>0        0.0047
     15  O3         6.7660   37.1180   58.6240 O.3     0  <0>0       -0.4677
     16  C2         8.0280   37.1520   57.9550 C.3     0  <0>0        0.2677
     17  C1         8.4790   38.6050   57.7900 C.3     0  <0>0        0.0598
     18  C3         9.0490   36.3990   58.7690 C.2     0  <0>0        0.4040
     19  O1         9.4670   36.8740   59.8110 O.co2   0  <0>0       -0.2416
     20  O2         9.4540   35.3150   58.3870 O.co2   0  <0>0       -0.2416
     21  N2        -1.3900   29.1660   55.3850 N.pl3   0  <0>0       -0.3125
     22  H14       -2.2670   29.1200   55.7960 H       0  <0>0        0.1522
     23  C17       -1.0880   28.3530   54.2910 C.ar    0  <0>0        0.0483
     24  C22       -1.6190   28.6420   53.0400 C.ar    0  <0>0        0.0146
     25  C21       -1.3150   27.8380   51.9600 C.ar    0  <0>0        0.0013
     26  C20       -0.4910   26.7390   52.1240 C.ar    0  <0>0        0.0001
     27  C19        0.0350   26.4450   53.3680 C.ar    0  <0>0        0.0013
     28  C18       -0.2610   27.2480   54.4520 C.ar    0  <0>0        0.0146
@<TRIPOS>BOND
     1    25    26   ar
     2    25    24   ar
     3    26    27   ar
     4    24    23   ar
     5    27    28   ar
     6    23    28   ar
     7    23    21    1
     8     3     2   ar
     9     3     4   ar
    10    21    22    1
    11    21     4    1
    12     2     1   ar
    13     4     5   ar
    14    10    11   ar
    15    10     9   ar
    16     8     9    1
    17     8     7    2
    18    11    12   ar
    19     1     7    1
    20     1     6   ar
    21     5     6   ar
    22     9    14   ar
    23    17    16    1
    24    16    15    1
    25    16    18    1
    26    12    15    1
    27    12    13   ar
    28    20    18   ar
    29    14    13   ar
    30    18    19   ar
