@<TRIPOS>MOLECULE
ZINC04106873_replica-1.pdb
 26 29 0 0 0
SMALL
GASTEIGER

@<TRIPOS>ATOM
      1  C1        -1.6820   26.5970   50.8500 C.ar    0  <0>0        0.0000
      2  C2        -1.0430   25.4770   51.3450 C.ar    0  <0>0        0.0001
      3  C3        -0.3970   25.5260   52.5680 C.ar    0  <0>0        0.0032
      4  C4        -0.3890   26.7070   53.3010 C.ar    0  <0>0        0.0390
      5  C5        -1.0380   27.8460   52.7990 C.ar    0  <0>0        0.0032
      6  C6        -1.6820   27.7820   51.5700 C.ar    0  <0>0        0.0001
      7  C7        -0.8730   28.9540   53.7760 C.ar    0  <0>0        0.0044
      8  C8        -1.3120   30.2690   53.7660 C.ar    0  <0>0        0.0002
      9  C9        -1.0150   31.1130   54.8280 C.ar    0  <0>0        0.0013
     10  C10       -0.2830   30.6580   55.9010 C.ar    0  <0>0        0.0160
     11  C11        0.1700   29.3370   55.9320 C.ar    0  <0>0        0.0678
     12  C12       -0.1250   28.4800   54.8680 C.ar    0  <0>0        0.0535
     13  C13        0.1990   27.0620   54.6140 C.2     0  <0>0        0.1968
     14  O1         0.8350   26.3270   55.3430 O.2     0  <0>0       -0.2865
     15  N1         0.9070   28.8790   57.0140 N.pl3   0  <0>0       -0.2149
     16  H8         1.8760   28.8980   56.9830 H       0  <0>0        0.1737
     17  S1         0.1320   28.3000   58.3580 S.O2    0  <0>0        0.0736
     18  O2        -1.2240   28.0900   57.9860 O.2     0  <0>0       -0.1499
     19  O3         0.9470   27.2620   58.8820 O.2     0  <0>0       -0.1499
     20  C14        0.1310   29.5930   59.5550 C.ar    0  <0>0        0.1252
     21  C19       -0.4910   29.4040   60.7760 C.ar    0  <0>0        0.0207
     22  C18       -0.4910   30.4180   61.7160 C.ar    0  <0>0        0.0081
     23  C17        0.1300   31.6220   61.4350 C.ar    0  <0>0        0.0346
     24  C16        0.7520   31.8100   60.2130 C.ar    0  <0>0        0.0081
     25 Br          0.1290   33.0090   62.7190 Br      0  <0>0       -0.0490
     26  C15        0.7560   30.7940   59.2760 C.ar    0  <0>0        0.0207
@<TRIPOS>BOND
     1     1     2   ar
     2     1     6   ar
     3     2     3   ar
     4     6     5   ar
     5     3     4   ar
     6     5     4   ar
     7     5     7    1
     8     4    13    1
     9     8     7   ar
    10     8     9   ar
    11     7    12   ar
    12    13    12    1
    13    13    14    2
    14     9    10   ar
    15    12    11   ar
    16    10    11   ar
    17    11    15    1
    18    16    15    1
    19    15    17    1
    20    18    17    2
    21    17    19    2
    22    17    20    1
    23    26    20   ar
    24    26    24   ar
    25    20    21   ar
    26    24    23   ar
    27    21    22   ar
    28    23    22   ar
    29    23    25    1
