@<TRIPOS>MOLECULE
ZINC04861719_replica-1.pdb
 24 25 0 0 0
SMALL
GASTEIGER

@<TRIPOS>ATOM
      1  S1         0.2870   30.9420   56.1300 S.3     0  <0>0       -0.0571
      2  C7         0.4390   32.4170   57.0800 C.2     0  <0>0        0.2126
      3  N1         0.3640   33.6260   56.4580 N.am    0  <0>0       -0.2541
      4  C6         0.4790   34.7610   57.1810 C.2     0  <0>0        0.2351
      5  H25        0.2280   33.6720   55.4990 H       0  <0>0        0.1577
      6  C5         0.6740   34.6600   58.5700 C.3     0  <0>0        0.1397
      7  O2         0.4140   35.8510   56.6410 O.2     0  <0>0       -0.2742
      8  C4         0.7410   33.4200   59.1390 C.2     0  <0>0        0.0980
      9  N2         0.6280   32.3320   58.3830 N.2     0  <0>0       -0.3889
     10  C3         0.9510   33.2860   60.6260 C.3     0  <0>0        0.0550
     11  C2        -0.3100   33.7430   61.3620 C.3     0  <0>0        0.0071
     12  C1        -0.1220   33.5470   62.8670 C.3     0  <0>0        0.0004
     13  C8         0.3600   29.6140   57.3630 C.3     0  <0>0        0.1506
     14  C9         0.1720   28.2830   56.6810 C.2     0  <0>0        0.2339
     15  O1        -0.3710   27.3720   57.2700 O.2     0  <0>0       -0.2741
     16  N3         0.6090   28.1040   55.4190 N.am    0  <0>0       -0.3036
     17  H11        1.0440   28.8330   54.9490 H       0  <0>0        0.1495
     18  C10        0.4260   26.8100   54.7580 C.3     0  <0>0        0.0894
     19  C11        0.0390   27.0360   53.2940 C.3     0  <0>0        0.0196
     20  C16       -0.3600   25.7020   52.6610 C.3     0  <0>0        0.0017
     21  C15       -0.7460   25.9270   51.1980 C.3     0  <0>0        0.0001
     22  C14       -1.9260   26.8980   51.1260 C.3     0  <0>0        0.0000
     23  C13       -1.5270   28.2330   51.7600 C.3     0  <0>0        0.0001
     24  C12       -1.1400   28.0080   53.2220 C.3     0  <0>0        0.0017
@<TRIPOS>BOND
     1    22    21    1
     2    22    23    1
     3    21    20    1
     4    23    24    1
     5    20    19    1
     6    24    19    1
     7    19    18    1
     8    18    16    1
     9    17    16    1
    10    16    14   am
    11     5     3    1
    12     1     2    1
    13     1    13    1
    14     3     2    1
    15     3     4   am
    16     7     4    2
    17    14    15    2
    18    14    13    1
    19     2     9    2
    20     4     6    1
    21     9     8    2
    22     6     8    1
    23     8    10    1
    24    10    11    1
    25    11    12    1
