@<TRIPOS>MOLECULE
ZINC40806807_replica-1.pdb
 25 28 0 0 0
SMALL
GASTEIGER

@<TRIPOS>ATOM
      1  N2         8.0460   34.0160   59.4980 N.am    0  <0>0       -0.2495
      2  C9         8.6300   34.7460   60.4690 C.2     0  <0>0        0.2675
      3  O1         8.1110   35.7790   60.8480 O.2     0  <0>0       -0.2681
      4  H7         8.4980   33.2370   59.1400 H       0  <0>0        0.1581
      5  C10        9.8930   34.2950   61.0690 C.ar    0  <0>0        0.1144
      6  N3        10.1030   33.0660   61.6650 N.ar    0  <0>0       -0.3216
      7  C17       11.4040   33.0050   62.1070 C.ar    0  <0>0        0.0623
      8  C18        9.1060   32.0010   61.8020 C.3     0  <0>0        0.1306
      9  C12       12.0160   34.2330   61.7840 C.ar    0  <0>0        0.0175
     10  C16       12.1420   32.0240   62.7610 C.ar    0  <0>0        0.0468
     11  C11       11.0390   35.0230   61.1320 C.ar    0  <0>0        0.0233
     12  C13       13.3580   34.4510   62.1260 C.ar    0  <0>0        0.0038
     13  C14       14.0620   33.4750   62.7670 C.ar    0  <0>0        0.0297
     14  C15       13.4610   32.2620   63.0870 C.ar    0  <0>0        0.1416
     15  F1        14.1760   31.3070   63.7230 F       0  <0>0       -0.2041
     16  C8         6.8020   34.3790   59.0130 C.2     0  <0>0        0.2175
     17  S1         5.1930   34.1150   59.7460 S.3     0  <0>0       -0.0377
     18  C6         4.2350   34.8850   58.4640 C.2     0  <0>0        0.0587
     19  C5         5.2310   35.2950   57.5490 C.2     0  <0>0        0.1391
     20  C7         2.8970   35.1130   58.2550 C.2     0  <0>0       -0.0129
     21  C4         4.7760   35.9590   56.3860 C.2     0  <0>0        0.0284
     22  N1         6.5030   35.0040   57.8980 N.2     0  <0>0       -0.3799
     23  C3         3.4380   36.1770   56.1830 C.2     0  <0>0       -0.0194
     24  C2         2.4870   35.7600   57.1040 C.3     0  <0>0        0.0447
     25  C1         1.0230   36.0140   56.8550 C.3     0  <0>0        0.0094
@<TRIPOS>BOND
     1    23    21    2
     2    23    24    1
     3    21    19    1
     4    25    24    1
     5    24    20    1
     6    19    22    2
     7    19    18    1
     8    22    16    2
     9    20    18    2
    10    18    17    1
    11    16     1    1
    12    16    17    1
    13     4     1    1
    14     1     2   am
    15     2     3    2
    16     2     5    1
    17     5    11   ar
    18     5     6   ar
    19    11     9   ar
    20     6     8    1
    21     6     7   ar
    22     9     7   ar
    23     9    12   ar
    24     7    10   ar
    25    12    13   ar
    26    10    14   ar
    27    13    14   ar
    28    14    15    1
