@<TRIPOS>MOLECULE
ZINC03314334_replica-1.pdb
 25 27 0 0 0
SMALL
GASTEIGER

@<TRIPOS>ATOM
      1  C9        10.3510   35.5710   60.4790 C.ar    0  <0>0        0.0538
      2  C10        9.6140   36.7520   60.6000 C.ar    0  <0>0        0.0061
      3  C11        8.7100   37.1010   59.6210 C.ar    0  <0>0        0.0193
      4  C12        8.5230   36.2740   58.5190 C.ar    0  <0>0        0.0824
      5  C13        9.2500   35.0940   58.3990 C.ar    0  <0>0        0.0193
      6  C14       10.1600   34.7430   59.3720 C.ar    0  <0>0        0.0061
      7  C8        11.3250   35.1970   61.5240 C.2     0  <0>0        0.2495
      8  N1        12.0530   34.0700   61.3960 N.am    0  <0>0       -0.2800
      9  H7        11.8910   33.4710   60.6490 H       0  <0>0        0.1552
     10  O1        11.4700   35.9060   62.5010 O.2     0  <0>0       -0.2698
     11  C5        13.0370   33.7620   62.3400 C.ar    0  <0>0        0.0568
     12  C4        14.2050   34.5110   62.3980 C.ar    0  <0>0        0.0149
     13  C3        15.1750   34.2050   63.3320 C.ar    0  <0>0       -0.0030
     14  C2        14.9850   33.1540   64.2100 C.ar    0  <0>0       -0.0213
     15  C1        16.0450   32.8220   65.2270 C.3     0  <0>0        0.0310
     16  C7        13.8230   32.4050   64.1570 C.ar    0  <0>0        0.0037
     17  C6        12.8460   32.7100   63.2280 C.ar    0  <0>0        0.0477
     18 Br         11.2530   31.6920   63.1610 Br      0  <0>0       -0.0477
     19  N2         7.6000   36.6280   57.5300 N.ar    0  <0>0       -0.2340
     20  N3         6.4310   35.9280   57.2050 N.ar    0  <0>0       -0.1698
     21  C17        5.8290   36.5660   56.2330 C.ar    0  <0>0        0.0805
     22  C16        6.5940   37.6920   55.9040 C.ar    0  <0>0        0.0312
     23  C18        4.5350   36.1580   55.5780 C.3     0  <0>0        0.0540
     24  C15        7.6740   37.7140   56.7180 C.ar    0  <0>0        0.0621
     25  C19        8.7650   38.7540   56.7190 C.3     0  <0>0        0.0522
@<TRIPOS>BOND
     1    23    21    1
     2    22    21   ar
     3    22    24   ar
     4    21    20   ar
     5    24    25    1
     6    24    19   ar
     7    20    19   ar
     8    19     4    1
     9     5     4   ar
    10     5     6   ar
    11     4     3   ar
    12     6     1   ar
    13     3     2   ar
    14     1     2   ar
    15     1     7    1
    16     9     8    1
    17     8     7   am
    18     8    11    1
    19     7    10    2
    20    11    12   ar
    21    11    17   ar
    22    12    13   ar
    23    18    17    1
    24    17    16   ar
    25    13    14   ar
    26    16    14   ar
    27    14    15    1
