@<TRIPOS>MOLECULE
ZINC00499534_replica-1.pdb
 19 21 0 0 0
SMALL
GASTEIGER

@<TRIPOS>ATOM
      1  C1        13.0260   30.2410   64.7070 C.3     0  <0>0        0.0919
      2  N1        13.3510   31.4880   64.0110 N.3     0  <0>0       -0.2435
      3  C2        14.5400   32.1480   64.0540 C.3     0  <0>0        0.2011
      4  N2        14.4830   33.2210   63.3180 N.2     0  <0>0       -0.2549
      5  C3        13.2520   33.3220   62.7530 C.2     0  <0>0        0.0755
      6  C4        12.5080   32.2110   63.1900 C.3     0  <0>0        0.1219
      7  C5        11.1940   32.0410   62.7700 C.2     0  <0>0       -0.0029
      8  C6        10.6170   32.9550   61.9370 C.2     0  <0>0        0.0163
      9  C7        11.3440   34.0650   61.4870 C.2     0  <0>0        0.0823
     10  C8        12.6610   34.2500   61.8970 C.2     0  <0>0        0.0351
     11  N3        10.7560   34.9720   60.6480 N.2     0  <0>0       -0.2438
     12  C9         9.9310   34.5650   59.7250 C.2     0  <0>0        0.0988
     13  C10        9.2990   35.5410   58.8220 C.ar    0  <0>0        0.0192
     14  C15        9.1210   36.8660   59.2310 C.ar    0  <0>0        0.0021
     15  C14        8.5280   37.7740   58.3800 C.ar    0  <0>0        0.0067
     16  C13        8.1080   37.3760   57.1220 C.ar    0  <0>0        0.0346
     17  C12        8.2870   36.0660   56.7060 C.ar    0  <0>0        0.0067
     18 Br          7.2960   38.6290   55.9620 Br      0  <0>0       -0.0490
     19  C11        8.8730   35.1470   57.5490 C.ar    0  <0>0        0.0021
@<TRIPOS>BOND
     1    18    16    1
     2    17    16   ar
     3    17    19   ar
     4    16    15   ar
     5    19    13   ar
     6    15    14   ar
     7    13    14   ar
     8    13    12    1
     9    12    11    2
    10    11     9    1
    11     9    10    2
    12     9     8    1
    13    10     5    1
    14     8     7    2
    15     5     6    1
    16     5     4    2
    17     7     6    1
    18     6     2    1
    19     4     3    1
    20     2     3    1
    21     2     1    1
