@<TRIPOS>MOLECULE
ZINC37067868_replica-1.pdb
 22 23 0 0 0
SMALL
GASTEIGER

@<TRIPOS>ATOM
      1  C8        10.4070   35.4480   60.4470 C.ar    0  <0>0        0.0449
      2  C9         9.9850   36.6980   60.8800 C.ar    0  <0>0        0.0148
      3  C10        9.0380   37.3960   60.1550 C.ar    0  <0>0        0.0077
      4  C11        8.5090   36.8470   58.9940 C.ar    0  <0>0        0.0328
      5  C12        8.9320   35.5960   58.5610 C.ar    0  <0>0        0.0077
      6  C13        9.8830   34.9020   59.2840 C.ar    0  <0>0        0.0148
      7  N1        11.3680   34.7420   61.1810 N.pl3   0  <0>0       -0.3291
      8  H8        12.2880   35.0490   61.1960 H       0  <0>0        0.1471
      9  C7        10.9840   33.5410   61.9260 C.3     0  <0>0        0.1144
     10  C3        12.1960   32.9660   62.6120 C.ar    0  <0>0        0.0004
     11  C2        12.1210   31.7300   63.2270 C.ar    0  <0>0       -0.0024
     12  C1        13.2320   31.2000   63.8570 C.ar    0  <0>0        0.0028
     13  C6        14.4200   31.9040   63.8730 C.ar    0  <0>0        0.0366
     14  C5        14.4980   33.1450   63.2570 C.ar    0  <0>0        0.1334
     15  C4        13.3830   33.6740   62.6250 C.ar    0  <0>0        0.0340
     16  O1        15.6660   33.8400   63.2710 O.3     0  <0>0       -0.5055
     17  H5        16.4550   33.2830   63.2320 H       0  <0>0        0.2922
     18  S1         7.3010   37.7370   58.0700 S.3     0  <0>0       -0.0144
     19  C14        8.1680   38.1990   56.5460 C.3     0  <0>0        0.4477
     20  F1         7.3330   38.9990   55.7580 F       0  <0>0       -0.1600
     21  F2         9.3280   38.9130   56.8670 F       0  <0>0       -0.1600
     22  F3         8.5130   37.0450   55.8360 F       0  <0>0       -0.1600
@<TRIPOS>BOND
     1    20    19    1
     2    22    19    1
     3    19    21    1
     4    19    18    1
     5    18     4    1
     6     5     4   ar
     7     5     6   ar
     8     4     3   ar
     9     6     1   ar
    10     3     2   ar
    11     1     2   ar
    12     1     7    1
    13     7     8    1
    14     7     9    1
    15     9    10    1
    16    10    15   ar
    17    10    11   ar
    18    15    14   ar
    19    11    12   ar
    20    17    16    1
    21    14    16    1
    22    14    13   ar
    23    12    13   ar
