@<TRIPOS>MOLECULE
ZINC06889761_replica-1.pdb
 24 25 0 0 0
SMALL
GASTEIGER

@<TRIPOS>ATOM
      1  C9        -1.2800   30.4870   56.2670 C.2     0  <0>0        0.1505
      2  S1        -2.7020   29.5920   55.9440 S.2     0  <0>0       -0.0172
      3  N2        -1.3680   31.7660   56.6820 N.am    0  <0>0       -0.2178
      4  H11       -2.2370   32.1800   56.7970 H       0  <0>0        0.1762
      5  N1        -0.0710   29.9130   56.1070 N.am    0  <0>0       -0.3145
      6  H10        0.5380   29.8450   56.8590 H       0  <0>0        0.1485
      7  C8         0.3240   29.3910   54.7960 C.3     0  <0>0        0.0931
      8  C7         0.3460   27.8620   54.8410 C.3     0  <0>0        0.0475
      9  C4        -0.2460   27.3120   53.5690 C.ar    0  <0>0       -0.0205
     10  C3        -0.0160   25.9970   53.2110 C.ar    0  <0>0       -0.0042
     11  C2        -0.5610   25.4940   52.0440 C.ar    0  <0>0       -0.0003
     12  C1        -1.3330   26.3060   51.2340 C.ar    0  <0>0       -0.0000
     13  C6        -1.5610   27.6210   51.5930 C.ar    0  <0>0       -0.0003
     14  C5        -1.0220   28.1230   52.7620 C.ar    0  <0>0       -0.0042
     15  N3        -0.2030   32.4990   56.9470 N.2     0  <0>0       -0.1783
     16  C10       -0.1560   33.2930   57.9730 C.2     0  <0>0        0.1206
     17  C11        1.0690   34.0640   58.2510 C.ar    0  <0>0        0.0587
     18  C16        2.0900   33.5050   59.0250 C.ar    0  <0>0        0.0614
     19  C15        3.2380   34.2320   59.2760 C.ar    0  <0>0        0.0116
     20 Cl          1.9190   31.9000   59.6640 Cl      0  <0>0       -0.0821
     21  C14        3.3740   35.5130   58.7740 C.ar    0  <0>0        0.0032
     22  C13        2.3670   36.0760   58.0110 C.ar    0  <0>0        0.0297
     23  C12        1.2150   35.3600   57.7460 C.ar    0  <0>0        0.1424
     24  F1         0.2320   35.9110   57.0000 F       0  <0>0       -0.2041
@<TRIPOS>BOND
     1    12    13   ar
     2    12    11   ar
     3    13    14   ar
     4    11    10   ar
     5    14     9   ar
     6    10     9   ar
     7     9     8    1
     8     7     8    1
     9     7     5    1
    10     2     1    2
    11     5     1    1
    12     5     6    1
    13     1     3    1
    14     3     4    1
    15     3    15    1
    16    15    16    2
    17    24    23    1
    18    23    22   ar
    19    23    17   ar
    20    16    17    1
    21    22    21   ar
    22    17    18   ar
    23    21    19   ar
    24    18    19   ar
    25    18    20    1
