@<TRIPOS>MOLECULE
ZINC20687696_replica-1.pdb
 24 27 0 0 0
SMALL
GASTEIGER

@<TRIPOS>ATOM
      1  C6         7.6480   35.2370   57.8570 C.3     0  <0>0        0.0978
      2  C7         7.8590   36.2440   58.9700 C.3     0  <0>0        0.0267
      3  C8         7.9830   37.7230   58.5870 C.3     0  <0>0        0.0023
      4  C9         8.8880   38.2500   59.7020 C.3     0  <0>0        0.0004
      5  C10        9.6400   37.2640   60.1800 C.3     0  <0>0        0.0045
      6  C11        9.3370   36.0300   59.4170 C.3     0  <0>0        0.0255
      7  C12        9.4100   34.6800   60.0190 C.ar    0  <0>0       -0.0080
      8  C13       10.2760   34.3920   61.0530 C.ar    0  <0>0        0.0210
      9  C14       10.3340   33.1190   61.5860 C.ar    0  <0>0        0.1423
     10  C15        9.5150   32.1270   61.0760 C.ar    0  <0>0        0.0210
     11  C16        8.6430   32.4070   60.0480 C.ar    0  <0>0       -0.0074
     12  C17        8.5700   33.6900   59.5030 C.ar    0  <0>0        0.0368
     13  N1         7.6530   33.9010   58.4750 N.pl3   0  <0>0       -0.3307
     14  C18        7.7580   31.3150   59.5050 C.3     0  <0>0        0.0324
     15  H15        6.9550   33.1290   58.1210 H       0  <0>0        0.1471
     16  C5         6.3230   35.4860   57.1830 C.ar    0  <0>0        0.0210
     17  C2         6.0750   35.9630   55.9390 C.ar    0  <0>0       -0.0178
     18  C1         7.2110   36.3280   55.0180 C.3     0  <0>0        0.0313
     19  C3         4.7640   36.1100   55.5270 C.ar    0  <0>0        0.0029
     20  C4         3.7650   35.7740   56.3790 C.ar    0  <0>0        0.0348
     21  S1         4.6740   35.2220   57.8130 S.2     0  <0>0       -0.0895
     22  N2        11.2650   32.8180   62.6960 N.pl3   0  <0>0        0.0577
     23  O1        12.1100   33.6330   63.0200 O.2     0  <0>0       -0.1261
     24  O2        11.1870   31.7540   63.2850 O.2     0  <0>0       -0.1261
@<TRIPOS>BOND
     1    18    17    1
     2    19    17   ar
     3    19    20   ar
     4    17    16   ar
     5    20    21   ar
     6    16    21   ar
     7    16     1    1
     8     1    13    1
     9     1     2    1
    10    15    13    1
    11    13    12    1
    12     3     2    1
    13     3     4    1
    14     2     6    1
    15     6     7    1
    16     6     5    1
    17    12     7   ar
    18    12    11   ar
    19    14    11    1
    20     4     5    1
    21     7     8   ar
    22    11    10   ar
    23     8     9   ar
    24    10     9   ar
    25     9    22    1
    26    22    23    2
    27    22    24    2
