@<TRIPOS>MOLECULE
ZINC29779320_replica-1.pdb
 24 26 0 0 0
SMALL
GASTEIGER

@<TRIPOS>ATOM
      1  C6         8.9900   34.4600   60.1720 C.2     0  <0>0        0.0780
      2  C7        10.0470   34.9600   60.8660 C.2     0  <0>0       -0.0226
      3  C8        10.8410   34.1020   61.6460 C.3     0  <0>0        0.0996
      4  C9        11.9750   34.4230   62.4360 C.2     0  <0>0       -0.0122
      5  C10       12.6090   33.4300   63.1230 C.2     0  <0>0        0.0323
      6  C11       12.1530   32.1220   63.0550 C.2     0  <0>0        0.2026
      7  N3        11.0990   31.8180   62.3220 N.2     0  <0>0       -0.3951
      8  C12       10.4550   32.7390   61.6420 C.2     0  <0>0        0.1458
      9  S2         9.0310   32.7240   60.5790 S.3     0  <0>0       -0.0552
     10  C14       10.3670   36.4310   60.7970 C.3     0  <0>0        0.0278
     11  C5         8.0430   35.1740   59.3050 C.2     0  <0>0        0.2571
     12  N2         8.2640   35.2430   57.9780 N.am    0  <0>0       -0.2505
     13  H5         9.0480   34.8200   57.5950 H       0  <0>0        0.1580
     14  O1         7.0590   35.7040   59.7860 O.2     0  <0>0       -0.2692
     15  C4         7.3680   35.9180   57.1590 C.2     0  <0>0        0.2128
     16  S1         7.5420   37.4300   56.4410 S.3     0  <0>0       -0.0597
     17  C3         5.9670   37.4870   55.6020 C.3     0  <0>0        0.1201
     18  C2         5.4410   36.2930   55.9690 C.2     0  <0>0        0.1006
     19  C1         4.0760   35.8570   55.5020 C.3     0  <0>0        0.0625
     20  N1         6.1760   35.5320   56.7590 N.2     0  <0>0       -0.3885
     21  C13       12.8670   31.0380   63.8220 C.3     0  <0>0        0.4462
     22  F1        13.1500   29.9690   62.9670 F       0  <0>0       -0.1635
     23  F2        14.0610   31.5460   64.3450 F       0  <0>0       -0.1635
     24  F3        12.0510   30.5950   64.8700 F       0  <0>0       -0.1635
@<TRIPOS>BOND
     1    19    18    1
     2    17    18    1
     3    17    16    1
     4    18    20    2
     5    16    15    1
     6    20    15    2
     7    15    12    1
     8    13    12    1
     9    12    11   am
    10    11    14    2
    11    11     1    1
    12     1     9    1
    13     1     2    2
    14     9     8    1
    15    10     2    1
    16     2     3    1
    17     8     3    1
    18     8     7    2
    19     3     4    1
    20     7     6    2
    21     4     5    2
    22    22    21    1
    23     6     5    1
    24     6    21    1
    25    21    23    1
    26    21    24    1
