@<TRIPOS>MOLECULE
ZINC12193627_replica-1.pdb
 30 34 0 0 0
SMALL
GASTEIGER

@<TRIPOS>ATOM
      1  C10        0.3700   31.3000   56.2030 C.2     0  <0>0        0.0782
      2  N1         0.6740   32.5490   56.0580 N.2     0  <0>0       -0.1831
      3  N2         1.1890   33.1280   57.2030 N.pl3   0  <0>0       -0.1912
      4  C11        1.4620   32.0650   58.1960 C.3     0  <0>0        0.1262
      5  C12        0.7220   30.8550   57.6080 C.3     0  <0>0        0.0735
      6  C13        0.8480   32.5250   59.4930 C.ar    0  <0>0        0.0323
      7  C14        0.6490   31.6090   60.5090 C.ar    0  <0>0        0.0071
      8  C15        0.1260   32.0160   61.7220 C.ar    0  <0>0        0.0345
      9  C16       -0.1980   33.3460   61.9170 C.ar    0  <0>0        0.0098
     10  C17       -0.0080   34.2610   60.9030 C.ar    0  <0>0        0.0372
     11  C18        0.5090   33.8570   59.6730 C.ar    0  <0>0        0.1386
     12  O2         0.6260   34.8040   58.7050 O.3     0  <0>0       -0.4553
     13  C19        1.4090   34.5410   57.5350 C.3     0  <0>0        0.2834
     14 Br         -0.1450   30.7590   63.1080 Br      0  <0>0       -0.0490
     15  C7        -0.2270   30.4420   55.1630 C.ar    0  <0>0        0.0153
     16  C6         0.2910   29.1660   54.9270 C.ar    0  <0>0        0.0043
     17  C5        -0.2700   28.3660   53.9550 C.ar    0  <0>0        0.0370
     18  C4        -1.3500   28.8270   53.2110 C.ar    0  <0>0        0.1391
     19  C9        -1.8680   30.0940   53.4430 C.ar    0  <0>0        0.0370
     20  C8        -1.3150   30.8980   54.4170 C.ar    0  <0>0        0.0043
     21  O1        -1.9000   28.0340   52.2550 O.3     0  <0>0       -0.4707
     22  C3        -1.0000   27.3980   51.3440 C.3     0  <0>0        0.2318
     23  C2        -1.2760   25.9160   51.3190 C.2     0  <0>0        0.0207
     24  C1        -0.5480   25.1020   52.0420 C.2     0  <0>0       -0.0011
     25  C20        2.8680   34.7850   57.8220 C.ar    0  <0>0        0.0387
     26  C25        3.2380   35.7030   58.7870 C.ar    0  <0>0        0.0010
     27  C24        4.5770   35.9260   59.0510 C.ar    0  <0>0       -0.0002
     28  C23        5.5440   35.2330   58.3500 C.ar    0  <0>0       -0.0000
     29  C22        5.1750   34.3150   57.3850 C.ar    0  <0>0       -0.0002
     30  C21        3.8360   34.0870   57.1240 C.ar    0  <0>0        0.0010
@<TRIPOS>BOND
     1    23    22    1
     2    23    24    2
     3    22    21    1
     4    21    18    1
     5    18    19   ar
     6    18    17   ar
     7    19    20   ar
     8    17    16   ar
     9    20    15   ar
    10    16    15   ar
    11    15     1    1
    12     2     1    2
    13     2     3    1
    14     1     5    1
    15    30    29   ar
    16    30    25   ar
    17     3    13    1
    18     3     4    1
    19    29    28   ar
    20    13    25    1
    21    13    12    1
    22     5     4    1
    23    25    26   ar
    24     4     6    1
    25    28    27   ar
    26    12    11    1
    27    26    27   ar
    28     6    11   ar
    29     6     7   ar
    30    11    10   ar
    31     7     8   ar
    32    10     9   ar
    33     8     9   ar
    34     8    14    1
