@<TRIPOS>MOLECULE
ZINC06793970_replica-1.pdb
 31 34 0 0 0
SMALL
GASTEIGER

@<TRIPOS>ATOM
      1  C1         8.3700   38.8290   56.8500 C.ar    0  <0>0        0.0001
      2  C2         7.2720   38.6320   56.0210 C.ar    0  <0>0        0.0015
      3  C3         6.7170   37.3810   55.8770 C.ar    0  <0>0        0.0172
      4  C4         7.2580   36.3000   56.5670 C.ar    0  <0>0        0.0599
      5  C5         8.3720   36.5010   57.4060 C.ar    0  <0>0        0.0114
      6  C6         8.9180   37.7850   57.5360 C.ar    0  <0>0        0.0011
      7  C7         8.6980   35.2450   57.9680 C.ar    0  <0>0       -0.0200
      8  C8         7.8150   34.3300   57.4820 C.ar    0  <0>0        0.1349
      9  N1         6.9330   34.9660   56.6260 N.ar    0  <0>0       -0.3181
     10  C17        9.8230   34.9680   58.9320 C.3     0  <0>0       -0.0525
     11  N2         9.3260   35.0770   60.3100 N.4     0  <0>0        0.3868
     12  H13        8.3220   34.9800   60.3140 H       0  <0>0       -0.0840
     13  H21        9.7370   34.3480   60.8740 H       0  <0>0       -0.0840
     14  C18        9.6950   36.3870   60.8610 C.3     0  <0>0       -0.0732
     15  C19        8.5200   36.9520   61.6620 C.3     0  <0>0        0.0413
     16  C20        7.2320   36.6760   60.9290 C.ar    0  <0>0        0.1209
     17  O3         6.6100   35.4890   60.8550 O.2     0  <0>0       -0.4548
     18  C23        5.4900   35.6140   60.1250 C.ar    0  <0>0        0.1791
     19  C22        5.3920   36.8910   59.7130 C.ar    0  <0>0        0.0434
     20  C21        6.5150   37.5750   60.2320 C.ar    0  <0>0        0.0361
     21  C16        7.8000   32.9030   57.8110 C.2     0  <0>0        0.4029
     22  O1         8.3010   32.0910   57.0450 O.co2   0  <0>0       -0.2389
     23  O2         7.2850   32.5210   58.8550 O.co2   0  <0>0       -0.2389
     24  C9         5.8330   34.3230   55.9030 C.3     0  <0>0        0.1329
     25  C10        4.5640   34.4500   56.7050 C.ar    0  <0>0        0.0004
     26  C15        4.1580   33.4150   57.5270 C.ar    0  <0>0       -0.0015
     27  C14        2.9970   33.5350   58.2670 C.ar    0  <0>0        0.0111
     28  C13        2.2350   34.6860   58.1770 C.ar    0  <0>0        0.0577
     29  C12        2.6380   35.7190   57.3510 C.ar    0  <0>0        0.0111
     30 Cl          0.7730   34.8350   59.1030 Cl      0  <0>0       -0.0822
     31  C11        3.8020   35.6010   56.6150 C.ar    0  <0>0       -0.0015
@<TRIPOS>BOND
     1     3     2   ar
     2     3     4   ar
     3    24     9    1
     4    24    25    1
     5     2     1   ar
     6     4     9   ar
     7     4     5   ar
     8    31    25   ar
     9    31    29   ar
    10     9     8   ar
    11    25    26   ar
    12     1     6   ar
    13    22    21   ar
    14    29    28   ar
    15     5     6   ar
    16     5     7   ar
    17     8    21    1
    18     8     7   ar
    19    26    27   ar
    20    21    23   ar
    21     7    10    1
    22    28    27   ar
    23    28    30    1
    24    10    11    1
    25    19    18   ar
    26    19    20   ar
    27    18    17   ar
    28    20    16   ar
    29    11    12    1
    30    11    14    1
    31    11    13    1
    32    17    16   ar
    33    14    15    1
    34    16    15    1
