@<TRIPOS>MOLECULE
ZINC05308153_replica-1.pdb
 18 18 0 0 0
SMALL
GASTEIGER

@<TRIPOS>ATOM
      1  C7         8.3970   34.1570   56.9250 C.3     0  <0>0        0.1829
      2  C8         7.1660   35.0020   56.5490 C.3     0  <0>0        0.0986
      3  C9         5.9860   34.0010   56.6080 C.3     0  <0>0        0.0406
      4  C10        6.7110   32.6370   56.4700 C.3     0  <0>0        0.1437
      5  O1         7.9330   32.8280   57.2160 O.3     0  <0>0       -0.3432
      6  C11        6.9610   36.1300   57.5610 C.3     0  <0>0        0.2384
      7  O2         5.7490   35.9070   58.2860 O.3     0  <0>0       -0.3304
      8  C12        5.9060   35.9460   59.7050 C.3     0  <0>0        0.1449
      9  C13        5.8420   37.3980   60.1840 C.3     0  <0>0        0.0347
     10  O3         6.8790   37.3800   56.8710 O.3     0  <0>0       -0.3304
     11  C14        8.1410   38.0240   56.6840 C.3     0  <0>0        0.1449
     12  C15        8.5580   38.7150   57.9840 C.3     0  <0>0        0.0347
     13  C6         9.0530   34.7280   58.1130 C.1     0  <0>0       -0.0619
     14  C5         9.5760   35.1840   59.0610 C.1     0  <0>0       -0.0887
     15  C4        10.2310   35.7540   60.2490 C.3     0  <0>0        0.0761
     16  C3        10.8380   34.6270   61.0870 C.3     0  <0>0        0.0139
     17  C2        11.8200   35.2170   62.1000 C.3     0  <0>0        0.0010
     18  C1        13.0430   34.3050   62.2170 C.3     0  <0>0        0.0000
@<TRIPOS>BOND
     1     4     3    1
     2     4     5    1
     3     2     3    1
     4     2     1    1
     5     2     6    1
     6    11    10    1
     7    11    12    1
     8    10     6    1
     9     1     5    1
    10     1    13    1
    11     6     7    1
    12    13    14    3
    13     7     8    1
    14    14    15    1
    15     8     9    1
    16    15    16    1
    17    16    17    1
    18    17    18    1
