@<TRIPOS>MOLECULE
ZINC03051874_replica-1.pdb
 18 20 0 0 0
SMALL
GASTEIGER

@<TRIPOS>ATOM
      1  C1         9.5420   37.2510   60.3630 C.ar    0  <0>0        0.0053
      2  C2         8.9600   38.1300   59.4760 C.ar    0  <0>0        0.0403
      3  C3         8.2440   37.6530   58.3870 C.ar    0  <0>0        0.1769
      4  C4         8.1100   36.2790   58.1860 C.ar    0  <0>0        0.1817
      5  C5         8.6960   35.3920   59.0680 C.ar    0  <0>0        0.0686
      6  C6         9.4120   35.8740   60.1680 C.ar    0  <0>0        0.0272
      7  I1         8.5040   33.3270   58.7640 I       0  <0>0       -0.0392
      8  O1         7.3670   36.0740   57.0580 O.3     0  <0>0       -0.4342
      9  C14        7.3960   37.3260   56.3480 C.3     0  <0>0        0.4294
     10  O2         7.5850   38.3050   57.3860 O.3     0  <0>0       -0.4346
     11  C7        10.0330   34.9310   61.1160 C.2     0  <0>0        0.0935
     12  N1        11.2410   35.1350   61.5340 N.2     0  <0>0       -0.2709
     13  C8        11.8580   34.1970   62.4760 C.3     0  <0>0        0.1033
     14  C13       11.1920   32.8260   62.3400 C.3     0  <0>0        0.0243
     15  C12       11.8370   31.8460   63.3220 C.3     0  <0>0        0.0020
     16  C11       13.3300   31.7210   63.0130 C.3     0  <0>0        0.0001
     17  C10       13.9960   33.0910   63.1470 C.3     0  <0>0        0.0020
     18  C9        13.3510   34.0710   62.1650 C.3     0  <0>0        0.0243
@<TRIPOS>BOND
     1     9     8    1
     2     9    10    1
     3     8     4    1
     4    10     3    1
     5     4     3   ar
     6     4     5   ar
     7     3     2   ar
     8     7     5    1
     9     5     6   ar
    10     2     1   ar
    11     6     1   ar
    12     6    11    1
    13    11    12    2
    14    12    13    1
    15    18    13    1
    16    18    17    1
    17    14    13    1
    18    14    15    1
    19    16    17    1
    20    16    15    1
