@<TRIPOS>MOLECULE
ZINC14022107_replica-1.pdb
 24 25 0 0 0
SMALL
GASTEIGER

@<TRIPOS>ATOM
      1  C10        5.9030   35.4790   55.3050 C.3     0  <0>0        0.1508
      2  C9         6.8090   34.7830   56.2890 C.2     0  <0>0        0.2371
      3  N1         6.9910   35.3030   57.5200 N.am    0  <0>0       -0.2804
      4  O1         7.3730   33.7570   55.9750 O.2     0  <0>0       -0.2739
      5  C4         7.8710   34.6270   58.4770 C.3     0  <0>0        0.0934
      6  C3         9.3090   35.1090   58.2760 C.3     0  <0>0        0.0215
      7  C2        10.0830   34.9650   59.5870 C.3     0  <0>0        0.0018
      8  C1        10.0110   36.2780   60.3690 C.3     0  <0>0        0.0001
      9  C5         6.3100   36.5430   57.9000 C.3     0  <0>0        0.0754
     10  C6         5.6840   36.3760   59.2870 C.3     0  <0>0        0.0215
     11  C7         7.3210   37.6910   57.9320 C.3     0  <0>0        0.0198
     12  C8         7.2450   38.4010   59.2850 C.3     0  <0>0        0.0018
     13  S1         4.6320   34.3230   54.7350 S.3     0  <0>0       -0.0571
     14  C11        3.4650   34.4830   56.0460 C.2     0  <0>0        0.2137
     15  N3         3.7090   33.9120   57.2070 N.2     0  <0>0       -0.3778
     16  C16        2.8480   34.0160   58.2120 C.2     0  <0>0        0.1530
     17  C13        1.6440   34.7330   58.0930 C.3     0  <0>0        0.1577
     18  S2         2.8070   33.4150   59.8810 S.3     0  <0>0       -0.0588
     19  C12        1.4060   35.3420   56.8200 C.2     0  <0>0        0.2392
     20  C14        0.8170   34.7480   59.2880 C.2     0  <0>0       -0.0027
     21  N2         2.3220   35.2030   55.8450 N.am    0  <0>0       -0.2538
     22  O2         0.3880   35.9850   56.6230 O.2     0  <0>0       -0.2739
     23  H2         2.1660   35.6180   54.9830 H       0  <0>0        0.1577
     24  C15        1.2400   34.1010   60.3840 C.2     0  <0>0        0.0339
@<TRIPOS>BOND
     1    13     1    1
     2    13    14    1
     3    23    21    1
     4     1     2    1
     5    21    14    1
     6    21    19   am
     7     4     2    2
     8    14    15    2
     9     2     3   am
    10    22    19    2
    11    19    17    1
    12    15    16    2
    13     3     9    1
    14     3     5    1
    15     9    11    1
    16     9    10    1
    17    11    12    1
    18    17    16    1
    19    17    20    1
    20    16    18    1
    21     6     5    1
    22     6     7    1
    23    20    24    2
    24     7     8    1
    25    18    24    1
