@<TRIPOS>MOLECULE
ZINC52254656_replica-1.pdb
 18 18 0 0 0
SMALL
GASTEIGER

@<TRIPOS>ATOM
      1  C8         7.2350   35.6860   57.2190 C.3     0  <0>0        0.0983
      2  C9         5.9630   36.3490   57.7520 C.3     0  <0>0        0.0275
      3  C10        4.7410   35.7210   57.0780 C.3     0  <0>0        0.0024
      4  C11        4.8290   35.9290   55.5650 C.3     0  <0>0        0.0002
      5  C12        6.1000   35.2660   55.0330 C.3     0  <0>0        0.0023
      6  C13        7.3230   35.8940   55.7060 C.3     0  <0>0        0.0275
      7  C14        6.0620   33.7680   55.3390 C.3     0  <0>0        0.0001
      8  C4         8.4570   36.3130   57.8920 C.3     0  <0>0        0.1235
      9  C3         8.8170   35.5170   59.1200 C.2     0  <0>0        0.3187
     10  O2         7.9620   35.2200   59.9210 O.2     0  <0>0       -0.2500
     11  O1        10.0890   35.1370   59.3240 O.3     0  <0>0       -0.4484
     12  C2        10.4020   34.5790   60.6020 C.3     0  <0>0        0.2086
     13  C1        10.9550   35.6750   61.5150 C.3     0  <0>0        0.0513
     14  C5         8.1330   37.7530   58.2960 C.3     0  <0>0        0.0129
     15  C6         8.8520   38.0910   59.6040 C.3     0  <0>0        0.0006
     16  C7         8.6010   38.7080   57.1950 C.3     0  <0>0        0.0006
     17  O3         7.1980   34.2860   57.5060 O.3     0  <0>0       -0.3862
     18  H26        7.3410   33.7220   56.7320 H       0  <0>0        0.2103
@<TRIPOS>BOND
     1     5     7    1
     2     5     4    1
     3     5     6    1
     4     4     3    1
     5     6     1    1
     6    18    17    1
     7     3     2    1
     8    16    14    1
     9     1    17    1
    10     1     2    1
    11     1     8    1
    12     8    14    1
    13     8     9    1
    14    14    15    1
    15     9    11    1
    16     9    10    2
    17    11    12    1
    18    12    13    1
