@<TRIPOS>MOLECULE
ZINC02948838_replica-1.pdb
 29 31 0 0 0
SMALL
GASTEIGER

@<TRIPOS>ATOM
      1  C7        -0.7140   29.6580   54.4080 C.1     0  <0>0        0.1692
      2  N2        -1.4220   29.4870   53.3070 N.2     0  <0>0       -0.3386
      3  C8        -1.3540   28.3320   52.6280 C.2     0  <0>0        0.1336
      4  C9        -2.0920   28.1170   51.4560 C.2     0  <0>0        0.0293
      5  C10       -1.9870   26.9250   50.8040 C.2     0  <0>0        0.0020
      6  C11       -1.1560   25.9160   51.2830 C.2     0  <0>0       -0.0036
      7  C12       -0.4290   26.0910   52.4240 C.2     0  <0>0       -0.0109
      8  C13       -0.5100   27.3050   53.1150 C.3     0  <0>0        0.1429
      9  C14        0.2270   27.5450   54.3020 C.2     0  <0>0        0.1839
     10  N3         0.0890   28.7190   54.8990 N.2     0  <0>0       -0.3233
     11  S1        -0.8400   31.1940   55.2630 S.3     0  <0>0       -0.0083
     12  C6         0.7290   31.1830   56.1640 C.3     0  <0>0        0.1590
     13  C5         1.2500   32.5920   56.2830 C.2     0  <0>0        0.2346
     14  N1         0.4030   33.6010   56.5680 N.am    0  <0>0       -0.3036
     15  H10       -0.5410   33.4200   56.6960 H       0  <0>0        0.1495
     16  O1         2.4310   32.8180   56.1230 O.2     0  <0>0       -0.2741
     17  C4         0.9090   34.9710   56.6840 C.3     0  <0>0        0.0894
     18  C3         0.9700   35.3700   58.1600 C.3     0  <0>0        0.0212
     19  C2         2.4030   35.7590   58.5260 C.3     0  <0>0        0.0017
     20  C1         3.1990   36.0360   57.2480 C.3     0  <0>0        0.0001
     21  N4         1.0630   26.5800   54.8220 N.pl3   0  <0>0       -0.2902
     22  H17        1.9960   26.5510   54.5550 H       0  <0>0        0.1543
     23  C15        0.5670   25.6420   55.7330 C.ar    0  <0>0        0.0500
     24  C20        0.6540   24.2850   55.4520 C.ar    0  <0>0        0.0170
     25  C19        0.1630   23.3600   56.3530 C.ar    0  <0>0        0.0309
     26  C18       -0.4160   23.7850   57.5370 C.ar    0  <0>0        0.1402
     27  C17       -0.5040   25.1380   57.8190 C.ar    0  <0>0        0.0309
     28  F1        -0.8960   22.8800   58.4170 F       0  <0>0       -0.2042
     29  C16       -0.0090   26.0660   56.9240 C.ar    0  <0>0        0.0170
@<TRIPOS>BOND
     1     5     6    1
     2     5     4    2
     3     6     7    2
     4     4     3    1
     5     7     8    1
     6     3     8    1
     7     3     2    2
     8     8     9    1
     9     2     1    2
    10     9    21    1
    11     9    10    2
    12     1    10    2
    13     1    11    1
    14    22    21    1
    15    21    23    1
    16    11    12    1
    17    24    23   ar
    18    24    25   ar
    19    23    29   ar
    20    16    13    2
    21    12    13    1
    22    13    14   am
    23    25    26   ar
    24    14    17    1
    25    14    15    1
    26    17    18    1
    27    29    27   ar
    28    20    19    1
    29    26    27   ar
    30    26    28    1
    31    18    19    1
