@<TRIPOS>MOLECULE
ZINC43682646_replica-1.pdb
 21 22 0 0 0
SMALL
GASTEIGER

@<TRIPOS>ATOM
      1  C10        8.5950   35.6540   60.4130 C.ar    0  <0>0        0.0374
      2  C11        9.3110   36.6340   61.0220 C.ar    0  <0>0        0.0058
      3  C12       10.5520   36.3370   61.5370 C.ar    0  <0>0        0.0150
      4  C13       11.0260   35.0550   61.4160 C.ar    0  <0>0        0.0707
      5  S1         9.6830   34.2470   60.5610 S.2     0  <0>0       -0.0805
      6  C9         7.2290   35.7320   59.7800 C.3     0  <0>0        0.1749
      7  O1         7.3610   35.6940   58.3570 O.3     0  <0>0       -0.3509
      8  C8         6.5660   36.6650   57.6730 C.3     0  <0>0        0.1156
      9  C3         7.3740   37.2650   56.5210 C.3     0  <0>0        0.0272
     10  C4         7.7740   36.1560   55.5470 C.3     0  <0>0        0.0024
     11  C5         6.5160   35.4850   54.9920 C.3     0  <0>0        0.0002
     12  C6         5.7080   34.8850   56.1440 C.3     0  <0>0        0.0025
     13  C7         5.3080   35.9940   57.1190 C.3     0  <0>0        0.0296
     14  C2         8.6330   37.9350   57.0760 C.3     0  <0>0        0.0024
     15  C1         8.2340   38.9990   58.1010 C.3     0  <0>0        0.0001
     16  C14       12.2710   34.5080   61.8640 C.1     0  <0>0       -0.0577
     17  C15       13.2920   34.0590   62.2320 C.1     0  <0>0       -0.0833
     18  C16       14.5720   33.4970   62.6920 C.3     0  <0>0        0.1081
     19  C17       14.3070   32.4300   63.7560 C.3     0  <0>0        0.1511
     20  O2        13.7250   31.2790   63.1420 O.3     0  <0>0       -0.3809
     21  H24       13.7610   30.4810   63.6870 H       0  <0>0        0.2105
@<TRIPOS>BOND
     1    11    10    1
     2    11    12    1
     3    10     9    1
     4    12    13    1
     5     9    14    1
     6     9     8    1
     7    14    15    1
     8    13     8    1
     9     8     7    1
    10     7     6    1
    11     6     1    1
    12     1     5   ar
    13     1     2   ar
    14     5     4   ar
    15     2     3   ar
    16     4     3   ar
    17     4    16    1
    18    16    17    3
    19    17    18    1
    20    18    19    1
    21    20    21    1
    22    20    19    1
