@<TRIPOS>MOLECULE
ZINC20828236_replica-1.pdb
 24 26 0 0 0
SMALL
GASTEIGER

@<TRIPOS>ATOM
      1  C1         7.0320   38.3290   55.4630 C.3     0  <0>0       -0.0188
      2  C2         7.7010   36.9800   55.7410 C.3     0  <0>0       -0.0354
      3  C3         8.2740   36.9810   57.1350 C.ar    0  <0>0       -0.0031
      4  C12        8.8600   35.8460   57.6210 C.ar    0  <0>0        0.1897
      5  C11        9.3960   35.8450   58.9260 C.ar    0  <0>0        0.0386
      6  O1         8.9260   34.7280   56.8550 O.3     0  <0>0       -0.2870
      7  C6         9.3150   37.0230   59.7090 C.ar    0  <0>0        0.0031
      8  C10       10.0070   34.7010   59.4620 C.ar    0  <0>0        0.0032
      9  C5         8.7040   38.1690   59.1710 C.ar    0  <0>0       -0.0002
     10  C7         9.8500   37.0240   61.0090 C.ar    0  <0>0        0.0001
     11  C4         8.1970   38.1350   57.9090 C.ar    0  <0>0       -0.0031
     12  C8        10.4350   35.8950   61.4960 C.ar    0  <0>0        0.0000
     13  C9        10.5180   34.7390   60.7230 C.ar    0  <0>0        0.0001
     14  N1         6.7050   35.9060   55.6210 N.4     0  <0>0        0.3879
     15  H11        6.6740   35.5500   54.5800 H       0  <0>0       -0.0839
     16  H21        6.9820   35.0740   56.2850 H       0  <0>0       -0.0839
     17  C13        5.3670   36.3840   55.9950 C.3     0  <0>0       -0.0764
     18  C14        4.6490   35.3050   56.8060 C.3     0  <0>0        0.0030
     19  C15        5.2250   35.2550   58.1980 C.ar    0  <0>0       -0.0243
     20  C20        5.1640   36.3700   59.0120 C.ar    0  <0>0       -0.0043
     21  C19        5.6930   36.3230   60.2880 C.ar    0  <0>0       -0.0003
     22  C18        6.2830   35.1620   60.7500 C.ar    0  <0>0       -0.0000
     23  C17        6.3440   34.0470   59.9350 C.ar    0  <0>0       -0.0003
     24  C16        5.8100   34.0920   58.6610 C.ar    0  <0>0       -0.0043
@<TRIPOS>BOND
     1    15    14    1
     2     1     2    1
     3    14     2    1
     4    14    17    1
     5    14    16    1
     6     2     3    1
     7    17    18    1
     8    18    19    1
     9     6     4    1
    10     3     4   ar
    11     3    11   ar
    12     4     5   ar
    13    11     9   ar
    14    19    24   ar
    15    19    20   ar
    16    24    23   ar
    17     5     8   ar
    18     5     7   ar
    19    20    21   ar
    20     9     7   ar
    21     8    13   ar
    22     7    10   ar
    23    23    22   ar
    24    21    22   ar
    25    13    12   ar
    26    10    12   ar
