@<TRIPOS>MOLECULE
ZINC37073207_replica-1.pdb
 21 22 0 0 0
SMALL
GASTEIGER

@<TRIPOS>ATOM
      1  C8        -0.7460   31.2600   55.8070 C.2     0  <0>0        0.0675
      2  C9         0.4000   30.5740   55.4140 C.3     0  <0>0        0.1784
      3  N2         0.2890   29.5750   54.5560 N.2     0  <0>0       -0.2137
      4  C10       -0.8940   29.2240   54.0710 C.1     0  <0>0        0.0312
      5  N3        -2.0060   29.8540   54.4220 N.2     0  <0>0       -0.1915
      6  C11       -1.9730   30.8580   55.2800 C.2     0  <0>0        0.1214
      7  N1        -0.6710   32.3210   56.7120 N.pl3   0  <0>0       -0.3345
      8  H16       -1.4760   32.7950   56.9730 H       0  <0>0        0.1466
      9  C2         0.6250   32.7180   57.2680 C.3     0  <0>0        0.0689
     10  C1         0.8680   34.2010   56.9840 C.3     0  <0>0        0.0212
     11  C3         0.6250   32.4810   58.7800 C.3     0  <0>0        0.0195
     12  C4         0.3130   33.7940   59.5020 C.3     0  <0>0        0.0017
     13  C5         0.9600   33.7810   60.8880 C.3     0  <0>0        0.0001
     14  C6        -0.1080   33.5020   61.9480 C.3     0  <0>0        0.0000
     15  C7         2.0290   32.6880   60.9420 C.3     0  <0>0        0.0000
     16  C12       -0.9740   28.0970   53.1110 C.ar    0  <0>0        0.0621
     17  C17       -1.6830   28.2420   51.9200 C.ar    0  <0>0        0.0100
     18  C16       -1.7500   27.1930   51.0260 C.ar    0  <0>0        0.0007
     19  C15       -1.1240   25.9940   51.3160 C.ar    0  <0>0        0.0000
     20  C14       -0.4220   25.8420   52.4990 C.ar    0  <0>0        0.0007
     21  C13       -0.3440   26.8870   53.3970 C.ar    0  <0>0        0.0100
@<TRIPOS>BOND
     1    18    19   ar
     2    18    17   ar
     3    19    20   ar
     4    17    16   ar
     5    20    21   ar
     6    16    21   ar
     7    16     4    1
     8     4     5    2
     9     4     3    2
    10     5     6    1
    11     3     2    1
    12     6     1    2
    13     2     1    1
    14     1     7    1
    15     7     8    1
    16     7     9    1
    17    10     9    1
    18     9    11    1
    19    11    12    1
    20    12    13    1
    21    13    15    1
    22    13    14    1
