@<TRIPOS>MOLECULE
ZINC41350962_replica-1.pdb
 29 32 0 0 0
SMALL
GASTEIGER

@<TRIPOS>ATOM
      1  C6        11.5080   34.7020   62.2340 C.2     0  <0>0        0.0470
      2  C7        10.6920   34.8410   61.1500 C.2     0  <0>0        0.1845
      3  C8        10.2040   36.0690   60.6310 C.2     0  <0>0        0.2327
      4  O1        10.4230   37.1920   61.0540 O.2     0  <0>0       -0.2832
      5  C9         9.3740   35.6960   59.4720 C.ar    0  <0>0        0.0764
      6  C10        8.6280   36.4280   58.5490 C.ar    0  <0>0        0.0095
      7  C11        7.9460   35.7790   57.5580 C.ar    0  <0>0        0.0376
      8  C12        7.9940   34.3910   57.4670 C.ar    0  <0>0        0.1474
      9  C13        8.7310   33.6510   58.3760 C.ar    0  <0>0        0.0474
     10  C14        9.4300   34.2950   59.3890 C.ar    0  <0>0        0.1474
     11  O2        10.2160   33.8310   60.3840 O.3     0  <0>0       -0.4504
     12  C15        8.7750   32.1490   58.2670 C.3     0  <0>0        0.0375
     13  O3         7.3120   33.7580   56.4780 O.3     0  <0>0       -0.4233
     14  C16        5.9700   33.7830   56.5200 C.2     0  <0>0        0.3407
     15  O4         5.3670   32.9100   57.0980 O.2     0  <0>0       -0.2480
     16  C17        5.2170   34.9010   55.8470 C.3     0  <0>0        0.2007
     17 Cl          4.6940   34.3700   54.2040 Cl      0  <0>0       -0.0981
     18  C18        4.0050   35.2580   56.6680 C.ar    0  <0>0        0.0032
     19  C23        2.7400   35.1110   56.1330 C.ar    0  <0>0       -0.0025
     20  C22        1.6280   35.4340   56.8900 C.ar    0  <0>0       -0.0003
     21  C21        1.7820   35.9130   58.1770 C.ar    0  <0>0       -0.0000
     22  C20        3.0480   36.0630   58.7110 C.ar    0  <0>0       -0.0003
     23  C19        4.1600   35.7370   57.9560 C.ar    0  <0>0       -0.0025
     24  C5        11.9270   33.4170   62.6430 C.ar    0  <0>0        0.0287
     25  C2        13.2190   32.9330   62.8310 C.ar    0  <0>0       -0.0152
     26  C1        14.4390   33.7880   62.6020 C.3     0  <0>0        0.0316
     27  C3        13.3100   31.6250   63.2440 C.ar    0  <0>0        0.0032
     28  C4        12.1710   30.9120   63.4310 C.ar    0  <0>0        0.0351
     29  S1        10.9400   31.9900   63.0540 S.2     0  <0>0       -0.0867
@<TRIPOS>BOND
     1    17    16    1
     2    16    14    1
     3    16    18    1
     4    19    18   ar
     5    19    20   ar
     6    13    14    1
     7    13     8    1
     8    14    15    2
     9    18    23   ar
    10    20    21   ar
    11     8     7   ar
    12     8     9   ar
    13     7     6   ar
    14    23    22   ar
    15    21    22   ar
    16    12     9    1
    17     9    10   ar
    18     6     5   ar
    19    10     5   ar
    20    10    11    1
    21     5     3    1
    22    11     2    1
    23     3     4    2
    24     3     2    1
    25     2     1    2
    26     1    24    1
    27    26    25    1
    28    24    25   ar
    29    24    29   ar
    30    25    27   ar
    31    29    28   ar
    32    27    28   ar
