@<TRIPOS>MOLECULE
ZINC17478681_replica-1.pdb
 23 25 0 0 0
SMALL
GASTEIGER

@<TRIPOS>ATOM
      1  C1         4.8140   36.4240   55.9680 C.3     0  <0>0        0.0274
      2  C2         4.4730   35.6570   57.2190 C.2     0  <0>0       -0.0275
      3  C3         3.1930   35.4990   57.5910 C.2     0  <0>0        0.0017
      4  S1         3.3130   34.5470   59.0940 S.3     0  <0>0       -0.0768
      5  C4         5.0790   34.3880   59.1770 C.2     0  <0>0        0.0967
      6  C5         5.5240   35.0800   58.0370 C.3     0  <0>0        0.1410
      7  C6         6.9440   35.1150   57.8480 C.2     0  <0>0        0.2368
      8  O1         7.4280   35.6900   56.8890 O.2     0  <0>0       -0.2741
      9  N1         7.7360   34.5050   58.7510 N.am    0  <0>0       -0.2540
     10  C7         7.2150   33.8550   59.8220 C.3     0  <0>0        0.2224
     11  N2         5.9250   33.8060   60.0220 N.2     0  <0>0       -0.2451
     12  C16        1.9510   36.0060   56.9040 C.3     0  <0>0        0.0376
     13  C8         9.1890   34.5410   58.5700 C.3     0  <0>0        0.1220
     14  C9         9.8300   35.1750   59.7780 C.ar    0  <0>0       -0.0023
     15  C14       10.7510   34.4630   60.5240 C.ar    0  <0>0        0.0012
     16  C13       11.3390   35.0450   61.6320 C.ar    0  <0>0        0.0712
     17  C12       11.0080   36.3380   61.9930 C.ar    0  <0>0        0.0038
     18  C11       10.0890   37.0500   61.2440 C.ar    0  <0>0       -0.0003
     19  C10        9.5030   36.4700   60.1350 C.ar    0  <0>0       -0.0026
     20  C15       12.3420   34.2690   62.4470 C.3     0  <0>0        0.4186
     21  F1        13.5140   34.0980   61.7040 F       0  <0>0       -0.1659
     22  F2        12.6320   34.9720   63.6210 F       0  <0>0       -0.1659
     23  F3        11.8090   33.0170   62.7730 F       0  <0>0       -0.1659
@<TRIPOS>BOND
     1     1     2    1
     2     8     7    2
     3    12     3    1
     4     2     3    2
     5     2     6    1
     6     3     4    1
     7     7     6    1
     8     7     9   am
     9     6     5    1
    10    13     9    1
    11    13    14    1
    12     9    10    1
    13     4     5    1
    14     5    11    2
    15    14    19   ar
    16    14    15   ar
    17    10    11    1
    18    19    18   ar
    19    15    16   ar
    20    18    17   ar
    21    16    17   ar
    22    16    20    1
    23    21    20    1
    24    20    23    1
    25    20    22    1
