@<TRIPOS>MOLECULE
ZINC40139105_replica-1.pdb
 25 28 0 0 0
SMALL
GASTEIGER

@<TRIPOS>ATOM
      1  S1         0.4150   28.2600   57.2500 S.O2    0  <0>0        0.0766
      2  O2         0.0940   29.6330   57.0780 O.2     0  <0>0       -0.1497
      3  O3         1.6880   27.8260   57.7090 O.2     0  <0>0       -0.1497
      4  N1        -0.7040   27.6380   58.3000 N.pl3   0  <0>0       -0.1880
      5  C4        -0.8990   28.2190   59.5610 C.ar    0  <0>0        0.0983
      6  C3        -2.0040   27.8960   60.3290 C.ar    0  <0>0       -0.0043
      7  C5         0.0370   29.1380   60.0360 C.ar    0  <0>0        0.1481
      8  C2        -2.1750   28.4930   61.5680 C.ar    0  <0>0       -0.0028
      9  C9        -3.0310   26.9030   59.8510 C.3     0  <0>0        0.0296
     10  C1        -1.2510   29.4050   62.0390 C.ar    0  <0>0        0.0029
     11  C6        -0.1440   29.7290   61.2760 C.ar    0  <0>0        0.0379
     12  C8        -2.9630   26.7510   58.3320 C.3     0  <0>0        0.0281
     13  C7        -1.5100   26.4680   57.9250 C.3     0  <0>0        0.1163
     14  O1         1.1240   29.4540   59.2840 O.3     0  <0>0       -0.5042
     15  H4         1.4410   28.7290   58.7280 H       0  <0>0        0.2922
     16  C10        0.1520   27.4830   55.6890 C.ar    0  <0>0        0.1251
     17  C15       -0.5560   28.1370   54.7020 C.ar    0  <0>0        0.0156
     18  C14       -0.7640   27.5360   53.4670 C.ar    0  <0>0       -0.0248
     19  C13       -0.2650   26.2750   53.2300 C.ar    0  <0>0       -0.0261
     20  C16       -1.5510   28.3040   52.4380 C.3     0  <0>0        0.0261
     21  C12        0.4410   25.6160   54.2280 C.ar    0  <0>0       -0.0032
     22  C19       -0.4480   25.5650   51.9140 C.3     0  <0>0        0.0260
     23  C11        0.6490   26.2150   55.4540 C.ar    0  <0>0        0.0198
     24  C18       -1.5790   26.2050   51.1130 C.3     0  <0>0        0.0050
     25  C17       -1.3300   27.7170   51.0460 C.3     0  <0>0        0.0050
@<TRIPOS>BOND
     1    25    24    1
     2    25    20    1
     3    24    22    1
     4    22    19    1
     5    20    18    1
     6    19    18   ar
     7    19    21   ar
     8    18    17   ar
     9    21    23   ar
    10    17    16   ar
    11    23    16   ar
    12    16     1    1
    13     2     1    2
    14     1     3    2
    15     1     4    1
    16    13     4    1
    17    13    12    1
    18     4     5    1
    19    12     9    1
    20    15    14    1
    21    14     7    1
    22     5     7   ar
    23     5     6   ar
    24     9     6    1
    25     7    11   ar
    26     6     8   ar
    27    11    10   ar
    28     8    10   ar
