@<TRIPOS>MOLECULE
ZINC39865349_replica-1.pdb
 24 26 0 0 0
SMALL
GASTEIGER

@<TRIPOS>ATOM
      1  N1         5.0720   35.4750   56.4000 N.am    0  <0>0       -0.2347
      2  C3         6.0470   36.3630   56.5000 C.2     0  <0>0        0.2599
      3  O1         6.1040   37.3320   55.7660 O.2     0  <0>0       -0.2690
      4  C4         7.0650   36.1230   57.5440 C.2     0  <0>0        0.0819
      5  C5         8.1580   36.8590   57.8650 C.2     0  <0>0       -0.0113
      6  C6         8.4670   38.1220   57.1030 C.3     0  <0>0        0.0317
      7  S1         6.4670   34.6040   58.2700 S.3     0  <0>0       -0.0483
      8  C13        5.0210   34.3890   57.2440 C.2     0  <0>0        0.1722
      9  N2         4.1260   33.4240   57.2820 N.2     0  <0>0       -0.1890
     10  C7         9.0420   36.4240   58.9550 C.ar    0  <0>0       -0.0033
     11  C12        9.1990   37.2210   60.0940 C.ar    0  <0>0        0.0002
     12  C11       10.0250   36.8030   61.1160 C.ar    0  <0>0        0.0067
     13  C10       10.7070   35.6020   61.0120 C.ar    0  <0>0        0.0346
     14  C9        10.5610   34.8090   59.8850 C.ar    0  <0>0        0.0067
     15 Br         11.8440   35.0410   62.4150 Br      0  <0>0       -0.0490
     16  C8         9.7340   35.2110   58.8580 C.ar    0  <0>0        0.0002
     17  C2         4.0310   35.6540   55.3860 C.3     0  <0>0        0.1005
     18  C1         4.4070   34.8710   54.1260 C.3     0  <0>0        0.0237
     19  C14        4.2440   32.4250   58.1950 C.2     0  <0>0        0.2424
     20  S2         3.6820   32.3640   59.8910 S.3     0  <0>0       -0.0554
     21  C16        4.2690   30.7150   60.2590 C.3     0  <0>0        0.1204
     22  C15        4.8350   30.3790   59.0730 C.2     0  <0>0        0.1009
     23  N3         4.8150   31.2310   58.0700 N.2     0  <0>0       -0.3846
     24  C17        5.4880   29.0310   58.9050 C.3     0  <0>0        0.0625
@<TRIPOS>BOND
     1    18    17    1
     2    17     1    1
     3     3     2    2
     4     1     2   am
     5     1     8    1
     6     2     4    1
     7     6     5    1
     8     8     9    2
     9     8     7    1
    10     9    19    1
    11     4     5    2
    12     4     7    1
    13     5    10    1
    14    23    19    2
    15    23    22    2
    16    19    20    1
    17    16    10   ar
    18    16    14   ar
    19    24    22    1
    20    10    11   ar
    21    22    21    1
    22    14    13   ar
    23    20    21    1
    24    11    12   ar
    25    13    12   ar
    26    13    15    1
