@<TRIPOS>MOLECULE
ZINC45629132_replica-1.pdb
 21 22 0 0 0
SMALL
GASTEIGER

@<TRIPOS>ATOM
      1  C1         8.8710   37.0570   61.9570 C.3     0  <0>0       -0.0189
      2  C2        10.0920   36.7410   61.0910 C.3     0  <0>0       -0.0385
      3  C3        10.8160   35.5480   61.6600 C.ar    0  <0>0       -0.0420
      4  C8        10.4070   34.2700   61.3290 C.ar    0  <0>0       -0.0050
      5  C7        11.0720   33.1750   61.8460 C.ar    0  <0>0        0.0141
      6  C6        12.1460   33.3590   62.7070 C.ar    0  <0>0        0.0479
      7  C5        12.5510   34.6440   63.0420 C.ar    0  <0>0        0.0141
      8  C4        11.8850   35.7350   62.5180 C.ar    0  <0>0       -0.0050
      9  N1        12.8180   32.2530   63.2330 N.pl3   0  <0>0       -0.3041
     10  C9        12.0770   31.0280   63.5450 C.3     0  <0>0        0.1122
     11  C10       14.2610   32.3170   63.4740 C.3     0  <0>0        0.1122
     12  N2         9.6580   36.4410   59.7200 N.4     0  <0>0        0.3876
     13  H16       10.4600   36.4280   59.1090 H       0  <0>0       -0.0839
     14  H27        9.2040   35.5400   59.7010 H       0  <0>0       -0.0839
     15  C11        8.7150   37.4750   59.2690 C.3     0  <0>0       -0.0808
     16  C12        8.0720   37.0370   57.9520 C.3     0  <0>0       -0.0166
     17  C17        8.7240   35.7410   57.4660 C.3     0  <0>0        0.0236
     18  C16        8.2990   35.4460   56.0560 C.2     0  <0>0       -0.0308
     19  C15        7.7640   36.3170   55.2620 C.2     0  <0>0       -0.0307
     20  C14        7.4870   37.7430   55.6400 C.3     0  <0>0        0.0256
     21  C13        8.2880   38.1220   56.8880 C.3     0  <0>0        0.0029
@<TRIPOS>BOND
     1    19    20    1
     2    19    18    2
     3    20    21    1
     4    18    17    1
     5    21    16    1
     6    17    16    1
     7    16    15    1
     8    13    12    1
     9    15    12    1
    10    14    12    1
    11    12     2    1
    12     2     3    1
    13     2     1    1
    14     4     3   ar
    15     4     5   ar
    16     3     8   ar
    17     5     6   ar
    18     8     7   ar
    19     6     7   ar
    20     6     9    1
    21     9    11    1
    22     9    10    1
