@<TRIPOS>MOLECULE
ZINC49546378_replica-1.pdb
 21 22 0 0 0
SMALL
GASTEIGER

@<TRIPOS>ATOM
      1  N1         0.4250   30.1160   54.7910 N.pl3   0  <0>0       -0.3090
      2  H12        1.0230   30.1060   54.0270 H       0  <0>0        0.1490
      3  C4        -0.8940   29.4850   54.6950 C.3     0  <0>0        0.0994
      4  C3        -1.9410   30.5430   54.3440 C.3     0  <0>0        0.0246
      5  C2        -2.9770   30.6280   55.4660 C.3     0  <0>0        0.0021
      6  C1        -2.9430   29.3410   56.2920 C.3     0  <0>0        0.0001
      7  C5        -0.8680   28.4260   53.6240 C.ar    0  <0>0        0.0250
      8  S1        -0.0290   26.8500   53.6220 S.2     0  <0>0       -0.0892
      9  C8        -0.5460   26.2920   52.0060 C.ar    0  <0>0        0.0352
     10  C7        -1.3050   27.3310   51.5800 C.ar    0  <0>0        0.0072
     11  C6        -1.4710   28.4250   52.4100 C.ar    0  <0>0        0.0043
     12  C9         0.8190   30.7270   55.9750 C.ar    0  <0>0        0.1831
     13  S2         0.5670   30.1950   57.6610 S.2     0  <0>0       -0.0245
     14  C10        1.3880   31.5610   58.4670 C.ar    0  <0>0        0.1611
     15  N3         1.7640   32.2850   57.4300 N.ar    0  <0>0       -0.1331
     16  N2         1.4730   31.8590   56.1560 N.ar    0  <0>0       -0.1252
     17  S3         1.6250   31.8650   60.1860 S.3     0  <0>0       -0.0745
     18  C11        2.2200   33.5770   60.2520 C.3     0  <0>0        0.1778
     19  C12        1.0530   34.5210   60.1210 C.2     0  <0>0        0.3761
     20  O1         1.0730   35.4020   59.2780 O.co2   0  <0>0       -0.2447
     21  O2         0.0890   34.4030   60.8570 O.co2   0  <0>0       -0.2447
@<TRIPOS>BOND
     1    10     9   ar
     2    10    11   ar
     3     9     8   ar
     4    11     7   ar
     5     8     7   ar
     6     7     3    1
     7     2     1    1
     8     4     3    1
     9     4     5    1
    10     3     1    1
    11     1    12    1
    12     5     6    1
    13    12    16   ar
    14    12    13   ar
    15    16    15   ar
    16    15    14   ar
    17    13    14   ar
    18    14    17    1
    19    20    19   ar
    20    19    18    1
    21    19    21   ar
    22    17    18    1
