@<TRIPOS>MOLECULE
ZINC00645740_replica-1.pdb
 27 30 0 0 0
SMALL
GASTEIGER

@<TRIPOS>ATOM
      1  C8         8.0820   36.5450   57.6240 C.2     0  <0>0       -0.0012
      2  C9         8.5930   37.1150   56.5060 C.2     0  <0>0        0.0332
      3  S1         7.1970   37.1770   55.3990 S.3     0  <0>0       -0.0717
      4  C10        5.9720   36.4450   56.4520 C.2     0  <0>0        0.0973
      5  C11        6.6730   36.1690   57.6380 C.3     0  <0>0        0.1452
      6  C12        5.9080   35.5620   58.6840 C.2     0  <0>0        0.2371
      7  O2         6.4290   35.2840   59.7510 O.2     0  <0>0       -0.2740
      8  N1         4.6050   35.3020   58.4720 N.am    0  <0>0       -0.2539
      9  C13        4.0080   35.6040   57.2910 C.3     0  <0>0        0.2224
     10  N2         4.6800   36.1580   56.3170 N.2     0  <0>0       -0.2451
     11  C14        3.8140   34.6800   59.5380 C.3     0  <0>0        0.1251
     12  C15        2.6130   33.9950   58.9390 C.ar    0  <0>0        0.0358
     13  C20        2.7240   32.7050   58.4520 C.ar    0  <0>0        0.0575
     14  C19        1.6200   32.0770   57.9020 C.ar    0  <0>0        0.0113
     15 Cl          4.2450   31.8750   58.5340 Cl      0  <0>0       -0.0824
     16  C18        0.4080   32.7380   57.8360 C.ar    0  <0>0        0.0032
     17  C17        0.2970   34.0280   58.3220 C.ar    0  <0>0        0.0294
     18  C16        1.3980   34.6550   58.8780 C.ar    0  <0>0        0.1386
     19  F1         1.2870   35.9130   59.3580 F       0  <0>0       -0.2044
     20  C5         8.9390   36.3090   58.8110 C.ar    0  <0>0       -0.0024
     21  C4         9.6640   35.1240   58.9250 C.ar    0  <0>0        0.0028
     22  C3        10.4610   34.9070   60.0290 C.ar    0  <0>0        0.0369
     23  C2        10.5400   35.8700   61.0270 C.ar    0  <0>0        0.1387
     24  C7         9.8200   37.0510   60.9170 C.ar    0  <0>0        0.0369
     25  C6         9.0250   37.2740   59.8130 C.ar    0  <0>0        0.0028
     26  O1        11.3270   35.6540   62.1150 O.3     0  <0>0       -0.4714
     27  C1        12.1420   34.4810   62.1030 C.3     0  <0>0        0.2525
@<TRIPOS>BOND
     1     3     4    1
     2     3     2    1
     3    10     4    2
     4    10     9    1
     5     4     5    1
     6     2     1    2
     7     9     8    1
     8     1     5    1
     9     1    20    1
    10     5     6    1
    11    16    14   ar
    12    16    17   ar
    13    14    13   ar
    14    17    18   ar
    15    13    15    1
    16    13    12   ar
    17     8     6   am
    18     8    11    1
    19     6     7    2
    20    20    21   ar
    21    20    25   ar
    22    18    12   ar
    23    18    19    1
    24    21    22   ar
    25    12    11    1
    26    25    24   ar
    27    22    23   ar
    28    24    23   ar
    29    23    26    1
    30    27    26    1
