@<TRIPOS>MOLECULE
ZINC00062542_replica-1.pdb
 21 23 0 0 0
SMALL
GASTEIGER

@<TRIPOS>ATOM
      1  C7        -0.9010   29.2840   54.3560 C.2     0  <0>0        0.1225
      2  C8        -2.1010   29.6200   54.9180 C.3     0  <0>0        0.1247
      3  S1        -1.6570   31.1230   55.7790 S.3     0  <0>0       -0.0594
      4  C9         0.0660   31.1520   55.3070 C.2     0  <0>0        0.2110
      5  N1         0.1560   30.0660   54.5610 N.2     0  <0>0       -0.3842
      6  N2         1.0490   32.0750   55.6330 N.pl3   0  <0>0       -0.2830
      7  H6         1.7960   32.2200   55.0320 H       0  <0>0        0.1551
      8  C10        0.9620   32.7950   56.8290 C.ar    0  <0>0        0.0506
      9  C15        0.7700   34.1710   56.8000 C.ar    0  <0>0        0.0170
     10  C14        0.6840   34.8810   57.9820 C.ar    0  <0>0        0.0309
     11  C13        0.7890   34.2210   59.1950 C.ar    0  <0>0        0.1402
     12  C12        0.9800   32.8510   59.2260 C.ar    0  <0>0        0.0309
     13  F1         0.7060   34.9180   60.3500 F       0  <0>0       -0.2042
     14  C11        1.0610   32.1360   58.0470 C.ar    0  <0>0        0.0170
     15  C6        -0.7800   28.0640   53.5200 C.ar    0  <0>0        0.0264
     16  C1        -1.3720   28.0200   52.2590 C.ar    0  <0>0        0.0031
     17  C2        -1.2530   26.8840   51.4840 C.ar    0  <0>0        0.0115
     18  C3        -0.5550   25.7880   51.9600 C.ar    0  <0>0        0.0577
     19  C4         0.0310   25.8260   53.2140 C.ar    0  <0>0        0.0115
     20 Cl         -0.4140   24.3610   50.9830 Cl      0  <0>0       -0.0822
     21  C5        -0.0790   26.9580   53.9960 C.ar    0  <0>0        0.0031
@<TRIPOS>BOND
     1    20    18    1
     2    17    18   ar
     3    17    16   ar
     4    18    19   ar
     5    16    15   ar
     6    19    21   ar
     7    15    21   ar
     8    15     1    1
     9     1     5    2
    10     1     2    1
    11     5     4    2
    12     2     3    1
    13     7     6    1
    14     4     6    1
    15     4     3    1
    16     6     8    1
    17     9     8   ar
    18     9    10   ar
    19     8    14   ar
    20    10    11   ar
    21    14    12   ar
    22    11    12   ar
    23    11    13    1
