@<TRIPOS>MOLECULE
ZINC35233229_replica-1.pdb
 20 20 0 0 0
SMALL
GASTEIGER

@<TRIPOS>ATOM
      1  C5        10.5040   35.7490   60.8520 C.ar    0  <0>0        0.0447
      2  C6        10.3560   34.9710   59.7120 C.ar    0  <0>0        0.0156
      3  C7         9.4240   35.3210   58.7550 C.ar    0  <0>0        0.0199
      4  C8         8.6400   36.4460   58.9310 C.ar    0  <0>0        0.1143
      5  C9         8.7840   37.2230   60.0660 C.ar    0  <0>0        0.0199
      6  C10        9.7100   36.8750   61.0300 C.ar    0  <0>0        0.0156
      7  N1        11.4450   35.3960   61.8230 N.pl3   0  <0>0       -0.3320
      8  H10       11.6430   36.0070   62.5510 H       0  <0>0        0.1468
      9  C2        12.1340   34.1060   61.7410 C.3     0  <0>0        0.0990
     10  C1        11.4260   33.0920   62.6420 C.3     0  <0>0        0.0238
     11  C3        13.5840   34.2720   62.2010 C.3     0  <0>0        0.1616
     12  O1        13.7910   33.5250   63.4020 O.3     0  <0>0       -0.3494
     13  C4        15.1040   33.6600   63.9500 C.3     0  <0>0        0.1742
     14  S1         7.4530   36.8900   57.7070 S.O2    0  <0>0        0.0920
     15  O2         7.7000   36.0050   56.6240 O.2     0  <0>0       -0.1612
     16  O3         6.2050   36.8720   58.3870 O.2     0  <0>0       -0.1612
     17  C11        7.8810   38.5890   57.2370 C.3     0  <0>0        0.5262
     18  F1         7.4420   39.4720   58.2290 F       0  <0>0       -0.1500
     19  F2         9.2690   38.6980   57.0970 F       0  <0>0       -0.1500
     20  F3         7.2630   38.9070   56.0230 F       0  <0>0       -0.1500
@<TRIPOS>BOND
     1    20    17    1
     2    15    14    2
     3    19    17    1
     4    17    14    1
     5    17    18    1
     6    14    16    2
     7    14     4    1
     8     3     4   ar
     9     3     2   ar
    10     4     5   ar
    11     2     1   ar
    12     5     6   ar
    13     1     6   ar
    14     1     7    1
    15     9     7    1
    16     9    11    1
    17     9    10    1
    18     7     8    1
    19    11    12    1
    20    12    13    1
