@<TRIPOS>MOLECULE
ZINC01446284_replica-1.pdb
 25 28 0 0 0
SMALL
GASTEIGER

@<TRIPOS>ATOM
      1  C1         1.9610   35.5830   56.8310 C.3     0  <0>0        0.0307
      2  C2         3.3960   35.7820   57.2440 C.ar    0  <0>0       -0.0246
      3  C3         3.7080   36.0460   58.5650 C.ar    0  <0>0       -0.0048
      4  C4         5.0230   36.2260   58.9420 C.ar    0  <0>0       -0.0034
      5  C5         6.0450   36.1440   58.0040 C.ar    0  <0>0       -0.0097
      6  C6         5.7340   35.8820   56.6840 C.ar    0  <0>0        0.0364
      7  C7         4.4040   35.6990   56.3070 C.ar    0  <0>0       -0.0130
      8  C8         4.0650   35.4110   54.8660 C.3     0  <0>0        0.0320
      9  N1         6.7130   35.7920   55.6950 N.pl3   0  <0>0       -0.3311
     10  C9         7.9960   35.3500   56.2430 C.3     0  <0>0        0.0921
     11  C10        8.4610   36.3150   57.3210 C.3     0  <0>0        0.0262
     12  C11        7.4560   36.3460   58.4900 C.3     0  <0>0        0.0254
     13  C12        7.5740   37.7690   59.0120 C.3     0  <0>0        0.0045
     14  C13        8.0700   38.5570   58.0910 C.3     0  <0>0        0.0004
     15  C14        8.3550   37.7760   56.8220 C.3     0  <0>0        0.0023
     16  H12        6.8110   36.6670   55.2030 H       0  <0>0        0.1470
     17  C15        7.8400   33.9740   56.8360 C.ar    0  <0>0       -0.0045
     18  C20        8.5490   33.6250   57.9700 C.ar    0  <0>0       -0.0010
     19  C19        8.4030   32.3640   58.5160 C.ar    0  <0>0        0.0238
     20  C18        7.5540   31.4480   57.9220 C.ar    0  <0>0        0.1429
     21  C17        6.8450   31.7960   56.7890 C.ar    0  <0>0        0.0238
     22  C16        6.9880   33.0590   56.2440 C.ar    0  <0>0       -0.0010
     23  N2         7.4010   30.0960   58.5050 N.pl3   0  <0>0        0.0577
     24  O1         7.4190   29.9480   59.7140 O.2     0  <0>0       -0.1261
     25  O2         7.2570   29.1310   57.7760 O.2     0  <0>0       -0.1261
@<TRIPOS>BOND
     1     8     7    1
     2    16     9    1
     3     9    10    1
     4     9     6    1
     5    10    17    1
     6    10    11    1
     7    22    21   ar
     8    22    17   ar
     9     7     6   ar
    10     7     2   ar
    11     6     5   ar
    12    21    20   ar
    13    15    11    1
    14    15    14    1
    15     1     2    1
    16    17    18   ar
    17     2     3   ar
    18    11    12    1
    19    25    23    2
    20    20    23    1
    21    20    19   ar
    22    18    19   ar
    23     5    12    1
    24     5     4   ar
    25    14    13    1
    26    12    13    1
    27    23    24    2
    28     3     4   ar
