@<TRIPOS>MOLECULE
ZINC09463777_replica-1.pdb
 29 33 0 0 0
SMALL
GASTEIGER

@<TRIPOS>ATOM
      1  C8        -1.6170   30.2940   56.1920 C.2     0  <0>0        0.2172
      2  N1        -0.9420   31.3970   55.9430 N.2     0  <0>0       -0.3776
      3  C9        -0.0640   31.8700   56.8200 C.2     0  <0>0        0.1524
      4  C10        0.1840   31.2320   58.0470 C.3     0  <0>0        0.1540
      5  C11        1.1780   31.8730   58.9110 C.2     0  <0>0       -0.0267
      6  C12        1.7540   33.0020   58.4480 C.2     0  <0>0        0.0023
      7  S2         1.0190   33.2760   56.8590 S.3     0  <0>0       -0.0639
      8  C13        2.7910   33.8370   59.1340 C.3     0  <0>0        0.0324
      9  C14        2.8410   33.4300   60.6140 C.3     0  <0>0        0.0055
     10  C15        2.9010   31.9020   60.7000 C.3     0  <0>0        0.0047
     11  C16        1.5600   31.3050   60.2750 C.3     0  <0>0        0.0231
     12  C17       -0.5680   30.0410   58.2940 C.2     0  <0>0        0.2425
     13  O1        -0.4200   29.4200   59.3330 O.2     0  <0>0       -0.2736
     14  N2        -1.4420   29.6140   57.3630 N.am    0  <0>0       -0.2208
     15  S1        -2.7690   29.6910   55.0030 S.3     0  <0>0       -0.0619
     16  C7        -1.8450   30.0160   53.4800 C.3     0  <0>0        0.0922
     17  C3        -1.5650   28.7150   52.7750 C.ar    0  <0>0       -0.0086
     18  C2        -2.1090   28.4740   51.5270 C.ar    0  <0>0       -0.0033
     19  C1        -1.8520   27.2800   50.8790 C.ar    0  <0>0        0.0020
     20  C6        -1.0510   26.3260   51.4770 C.ar    0  <0>0        0.0296
     21  C5        -0.5060   26.5660   52.7270 C.ar    0  <0>0        0.1399
     22  C4        -0.7590   27.7630   53.3730 C.ar    0  <0>0        0.0262
     23  F1         0.2770   25.6340   53.3130 F       0  <0>0       -0.2042
     24  C18       -2.2150   28.3940   57.6100 C.3     0  <0>0        0.1653
     25  C19       -1.3270   27.1910   57.4280 C.ar    0  <0>0        0.1435
     26  O2        -0.3630   27.0580   56.5020 O.2     0  <0>0       -0.4529
     27  C22        0.2240   25.8580   56.6340 C.ar    0  <0>0        0.1792
     28  C21       -0.3650   25.2080   57.6540 C.ar    0  <0>0        0.0435
     29  C20       -1.3640   26.0670   58.1670 C.ar    0  <0>0        0.0380
@<TRIPOS>BOND
     1    19    20   ar
     2    19    18   ar
     3    20    21   ar
     4    18    17   ar
     5    21    23    1
     6    21    22   ar
     7    17    22   ar
     8    17    16    1
     9    16    15    1
    10    15     1    1
    11     2     1    2
    12     2     3    2
    13     1    14    1
    14    26    27   ar
    15    26    25   ar
    16    27    28   ar
    17     3     7    1
    18     3     4    1
    19     7     6    1
    20    14    24    1
    21    14    12   am
    22    25    24    1
    23    25    29   ar
    24    28    29   ar
    25     4    12    1
    26     4     5    1
    27    12    13    2
    28     6     5    2
    29     6     8    1
    30     5    11    1
    31     8     9    1
    32    11    10    1
    33     9    10    1
