@<TRIPOS>MOLECULE
ZINC05431606_replica-1.pdb
 25 26 0 0 0
SMALL
GASTEIGER

@<TRIPOS>ATOM
      1  N2         2.0290   32.5670   55.5930 N.am    0  <0>0       -0.2028
      2  C11        0.9870   32.3140   56.4090 C.2     0  <0>0        0.2856
      3  O2         1.0090   32.7020   57.5580 O.2     0  <0>0       -0.2693
      4  H13        2.0120   32.2560   54.6740 H       0  <0>0        0.1774
      5  N1         3.1360   33.2790   56.0710 N.2     0  <0>0       -0.1775
      6  C10        3.6850   34.1970   55.3350 C.2     0  <0>0        0.1176
      7  C7         4.8500   34.9470   55.8390 C.ar    0  <0>0        0.0209
      8  C6         6.0110   35.0390   55.0660 C.ar    0  <0>0        0.0047
      9  C5         7.0980   35.7410   55.5410 C.ar    0  <0>0        0.0369
     10  C4         7.0400   36.3560   56.7860 C.ar    0  <0>0        0.1386
     11  C9         5.8880   36.2680   57.5560 C.ar    0  <0>0        0.0369
     12  C8         4.7950   35.5720   57.0870 C.ar    0  <0>0        0.0047
     13  O1         8.1140   37.0470   57.2500 O.3     0  <0>0       -0.4755
     14  C3         8.6060   36.6900   58.5430 C.3     0  <0>0        0.2054
     15  C2         9.3220   35.3410   58.4610 C.3     0  <0>0        0.0473
     16  C1        10.1780   35.1410   59.7140 C.3     0  <0>0        0.0040
     17  C12       -0.2040   31.5470   55.8940 C.3     0  <0>0        0.2911
     18  O3         0.0750   30.1460   55.9420 O.3     0  <0>0       -0.4656
     19  C13       -0.3070   29.4050   54.8680 C.ar    0  <0>0        0.1393
     20  C18       -1.2370   29.9090   53.9710 C.ar    0  <0>0        0.0378
     21  C17       -1.6230   29.1530   52.8810 C.ar    0  <0>0        0.0145
     22  C16       -1.0840   27.8950   52.6840 C.ar    0  <0>0        0.0579
     23  C15       -0.1550   27.3900   53.5780 C.ar    0  <0>0        0.0145
     24 Cl         -1.5720   26.9470   51.3140 Cl      0  <0>0       -0.0822
     25  C14        0.2340   28.1420   54.6680 C.ar    0  <0>0        0.0378
@<TRIPOS>BOND
     1    24    22    1
     2    22    21   ar
     3    22    23   ar
     4    21    20   ar
     5    23    25   ar
     6    20    19   ar
     7    25    19   ar
     8     4     1    1
     9    19    18    1
    10     8     9   ar
    11     8     7   ar
    12     6     7    1
    13     6     5    2
    14     9    10   ar
    15     1     5    1
    16     1     2   am
    17     7    12   ar
    18    17    18    1
    19    17     2    1
    20     2     3    2
    21    10    13    1
    22    10    11   ar
    23    12    11   ar
    24    13    14    1
    25    15    14    1
    26    15    16    1
