@<TRIPOS>MOLECULE
ZINC20095397_replica-1.pdb
 22 24 0 0 0
SMALL
GASTEIGER

@<TRIPOS>ATOM
      1  N1        -2.3780   29.5700   54.6050 N.4     0  <0>0        0.3924
      2  H13       -2.6010   28.5200   54.8470 H       0  <0>0       -0.0833
      3  H21       -3.2550   30.0300   54.1270 H       0  <0>0       -0.0833
      4  C9        -2.0550   30.2970   55.8410 C.3     0  <0>0       -0.0148
      5  C8        -2.0390   29.3360   57.0000 C.ar    0  <0>0        0.1011
      6  C7        -2.6930   28.1610   57.0580 C.ar    0  <0>0        0.0335
      7  C6        -2.4000   27.5900   58.3170 C.ar    0  <0>0        0.0356
      8  C5        -1.5840   28.4490   58.9540 C.ar    0  <0>0        0.1218
      9  O1        -1.3640   29.5010   58.1490 O.2     0  <0>0       -0.4642
     10  C4        -1.0090   28.2590   60.3340 C.3     0  <0>0        0.0574
     11  C2        -1.5610   29.1400   61.4570 C.3     0  <0>0        0.0075
     12  C1        -1.6730   28.5210   62.8510 C.3     0  <0>0        0.0005
     13  C3        -0.1560   29.3930   60.9060 C.3     0  <0>0        0.0079
     14  C10       -1.2530   29.6080   53.6620 C.3     0  <0>0       -0.0380
     15  C11        0.0060   30.0880   54.3880 C.3     0  <0>0       -0.0189
     16  C12       -1.0160   28.2270   53.1070 C.ar    0  <0>0       -0.0419
     17  C17       -1.5420   27.8780   51.8770 C.ar    0  <0>0       -0.0040
     18  C16       -1.3200   26.6130   51.3650 C.ar    0  <0>0        0.0292
     19  C15       -0.5710   25.6970   52.0820 C.ar    0  <0>0        0.1401
     20  C14       -0.0450   26.0490   53.3150 C.ar    0  <0>0        0.0292
     21  F1        -0.3540   24.4600   51.5820 F       0  <0>0       -0.2042
     22  C13       -0.2670   27.3130   53.8250 C.ar    0  <0>0       -0.0040
@<TRIPOS>BOND
     1    18    17   ar
     2    18    19   ar
     3    21    19    1
     4    17    16   ar
     5    19    20   ar
     6    16    14    1
     7    16    22   ar
     8    20    22   ar
     9    14    15    1
    10    14     1    1
    11     3     1    1
    12     1     2    1
    13     1     4    1
    14     4     5    1
    15     5     6   ar
    16     5     9   ar
    17     6     7   ar
    18     9     8   ar
    19     7     8   ar
    20     8    10    1
    21    10    13    1
    22    10    11    1
    23    13    11    1
    24    11    12    1
