@<TRIPOS>MOLECULE
ZINC39552732_replica-1.pdb
 22 23 0 0 0
SMALL
GASTEIGER

@<TRIPOS>ATOM
      1  N1         6.7850   36.4590   58.1010 N.am    0  <0>0       -0.2966
      2  C9         6.1960   36.4370   56.8890 C.2     0  <0>0        0.2776
      3  O1         6.6050   37.1560   56.0000 O.2     0  <0>0       -0.2673
      4  H9         6.4580   35.8850   58.8100 H       0  <0>0        0.1501
      5  C2         7.9200   37.3530   58.3460 C.3     0  <0>0        0.0945
      6  C1         7.4240   38.6370   59.0120 C.3     0  <0>0        0.0262
      7  C3         8.9120   36.6680   59.2500 C.ar    0  <0>0       -0.0045
      8  C8         9.3090   37.2760   60.4260 C.ar    0  <0>0       -0.0022
      9  C7        10.2160   36.6470   61.2590 C.ar    0  <0>0        0.0064
     10  C6        10.7330   35.4120   60.9090 C.ar    0  <0>0        0.0345
     11  C5        10.3390   34.8060   59.7310 C.ar    0  <0>0        0.0064
     12 Br         11.9770   34.5520   62.0440 Br      0  <0>0       -0.0490
     13  C4         9.4290   35.4340   58.9010 C.ar    0  <0>0       -0.0022
     14  C10        5.0450   35.5310   56.6400 C.2     0  <0>0        0.2083
     15  N3         3.8030   35.9320   56.8990 N.2     0  <0>0       -0.3388
     16  C13        2.7750   35.1300   56.6720 C.1     0  <0>0        0.1161
     17  N2         2.9390   33.9030   56.1960 N.2     0  <0>0       -0.1761
     18  C12        4.1430   33.4350   55.9220 C.2     0  <0>0        0.1251
     19  C11        5.2510   34.2450   56.1390 C.2     0  <0>0        0.1125
     20 Cl          6.8530   33.6720   55.7920 Cl      0  <0>0       -0.0777
     21  S1         1.1460   35.7040   57.0210 S.3     0  <0>0       -0.0295
     22  C14        0.3910   34.3440   57.9530 C.3     0  <0>0        0.0861
@<TRIPOS>BOND
     1    20    19    1
     2    18    19    2
     3    18    17    1
     4     3     2    2
     5    19    14    1
     6    17    16    2
     7    14     2    1
     8    14    15    2
     9    16    15    2
    10    16    21    1
    11     2     1   am
    12    21    22    1
    13     1     5    1
    14     1     4    1
    15     5     6    1
    16     5     7    1
    17    13     7   ar
    18    13    11   ar
    19     7     8   ar
    20    11    10   ar
    21     8     9   ar
    22    10     9   ar
    23    10    12    1
