@<TRIPOS>MOLECULE
ZINC05866029_replica-1.pdb
 29 30 0 0 0
SMALL
GASTEIGER

@<TRIPOS>ATOM
      1  C1         8.8520   38.5670   57.5780 C.3     0  <0>0        0.0257
      2  C2         8.2170   37.4920   58.4210 C.3     0  <0>0        0.1188
      3  N1         6.9370   37.2880   58.3570 N.3     0  <0>0       -0.1291
      4  N2         6.3800   36.6820   57.2230 N.am    0  <0>0       -0.2440
      5  H4         6.7850   36.8190   56.3520 H       0  <0>0        0.1696
      6  C3         5.2820   35.9090   57.3430 C.2     0  <0>0        0.1459
      7  S1         4.7600   34.9550   56.0210 S.2     0  <0>0       -0.0176
      8  N3         4.5960   35.8870   58.5020 N.am    0  <0>0       -0.3168
      9  H5         4.8920   36.4280   59.2510 H       0  <0>0        0.1484
     10  C4         3.4030   35.0480   58.6320 C.3     0  <0>0        0.0706
     11  C9         3.4650   34.2720   59.9500 C.3     0  <0>0        0.0195
     12  C8         2.2190   33.3960   60.0850 C.3     0  <0>0        0.0017
     13  C7         0.9700   34.2780   60.0720 C.3     0  <0>0        0.0001
     14  C6         0.9070   35.0540   58.7540 C.3     0  <0>0        0.0017
     15  C5         2.1540   35.9300   58.6190 C.3     0  <0>0        0.0195
     16  C10        9.0500   36.6720   59.3190 C.ar    0  <0>0        0.0297
     17  C15        9.4430   35.3830   58.9330 C.ar    0  <0>0        0.1446
     18  C14       10.2290   34.6210   59.7790 C.ar    0  <0>0        0.0739
     19  C13       10.6230   35.1310   61.0080 C.ar    0  <0>0        0.1473
     20  C12       10.2300   36.4070   61.3950 C.ar    0  <0>0        0.0370
     21  C11        9.4470   37.1750   60.5610 C.ar    0  <0>0        0.0033
     22  O1         9.0570   34.8850   57.7280 O.3     0  <0>0       -0.4238
     23  C16        8.1590   33.7740   57.7440 C.3     0  <0>0        0.5086
     24  F1         7.3030   33.8820   58.8460 F       0  <0>0       -0.1550
     25  F2         8.8890   32.5840   57.8360 F       0  <0>0       -0.1550
     26  O2        11.3940   34.3800   61.8360 O.3     0  <0>0       -0.4235
     27  C17       12.5680   34.9990   62.3670 C.3     0  <0>0        0.5087
     28  F3        12.5600   34.8930   63.7630 F       0  <0>0       -0.1550
     29  F4        13.7030   34.3590   61.8590 F       0  <0>0       -0.1550
@<TRIPOS>BOND
     1     7     6    2
     2     5     4    1
     3     4     6    1
     4     4     3    1
     5     6     8    1
     6     1     2    1
     7    22    23    1
     8    22    17    1
     9    23    25    1
    10    23    24    1
    11     3     2    1
    12     2    16    1
    13     8    10    1
    14     8     9    1
    15    15    10    1
    16    15    14    1
    17    10    11    1
    18    14    13    1
    19    17    16   ar
    20    17    18   ar
    21    16    21   ar
    22    18    19   ar
    23    11    12    1
    24    13    12    1
    25    21    20   ar
    26    19    20   ar
    27    19    26    1
    28    26    27    1
    29    29    27    1
    30    27    28    1
