@<TRIPOS>MOLECULE
ZINC48438622_replica-1.pdb
 19 20 0 0 0
SMALL
GASTEIGER

@<TRIPOS>ATOM
      1  S1        -1.0220   29.5570   54.7000 S.3     0  <0>0        0.0529
      2  O2        -2.2930   29.5760   55.3360 O.3     0  <0>0       -0.0569
      3  O3        -0.4070   30.7330   54.1920 O.3     0  <0>0       -0.0569
      4  O1        -0.0460   28.9510   55.6980 O.3     0  <0>0       -0.3567
      5  C5        -0.6070   28.6230   56.8910 C.ar    0  <0>0        0.1778
      6  C4        -0.4660   29.4710   57.9810 C.ar    0  <0>0        0.0713
      7  C3        -1.0380   29.1340   59.1940 C.ar    0  <0>0        0.0098
      8 Br          0.5070   31.0830   57.8080 Br      0  <0>0       -0.0458
      9  C2        -1.7500   27.9570   59.3200 C.ar    0  <0>0        0.0007
     10  C1        -1.8920   27.1110   58.2350 C.ar    0  <0>0        0.0032
     11  C6        -1.3220   27.4420   57.0210 C.ar    0  <0>0        0.0403
     12  C7        -1.1520   28.4330   53.3500 C.ar    0  <0>0        0.1498
     13  C12       -1.9140   28.7650   52.2420 C.ar    0  <0>0        0.1586
     14  C11       -2.0100   27.8820   51.1790 C.ar    0  <0>0        0.0333
     15  F1        -2.5570   29.9520   52.1960 F       0  <0>0       -0.2028
     16  C10       -1.3560   26.6660   51.2280 C.ar    0  <0>0        0.0320
     17  C9        -0.5990   26.3330   52.3380 C.ar    0  <0>0        0.1416
     18  C8        -0.4970   27.2160   53.3980 C.ar    0  <0>0        0.0517
     19  F2         0.0400   25.1440   52.3860 F       0  <0>0       -0.2041
@<TRIPOS>BOND
     1    14    16   ar
     2    14    13   ar
     3    16    17   ar
     4    15    13    1
     5    13    12   ar
     6    17    19    1
     7    17    18   ar
     8    12    18   ar
     9    12     1    1
    10     3     1    1
    11     1     2    1
    12     1     4    1
    13     4     5    1
    14     5    11   ar
    15     5     6   ar
    16    11    10   ar
    17     8     6    1
    18     6     7   ar
    19    10     9   ar
    20     7     9   ar
