@<TRIPOS>MOLECULE
ZINC40373321_replica-1.pdb
 29 30 0 0 0
SMALL
GASTEIGER

@<TRIPOS>ATOM
      1  C13        5.1400   34.7850   58.6060 C.3     0  <0>0        0.1195
      2  C12        5.1090   34.2110   60.0240 C.3     0  <0>0        0.1691
      3  O2         6.4310   33.8450   60.4200 O.3     0  <0>0       -0.3473
      4  C11        6.6440   32.4340   60.4990 C.3     0  <0>0        0.1894
      5  C10        8.1470   32.1450   60.4880 C.3     0  <0>0        0.2373
      6  O1         8.8710   33.3740   60.5540 O.3     0  <0>0       -0.4727
      7  C7        10.0410   33.3660   61.2440 C.ar    0  <0>0        0.1387
      8  C6        10.3550   32.2920   62.0650 C.ar    0  <0>0        0.0366
      9  C5        11.5460   32.2860   62.7660 C.ar    0  <0>0       -0.0012
     10  C4        12.4230   33.3480   62.6500 C.ar    0  <0>0       -0.0223
     11  C9        12.1100   34.4210   61.8370 C.ar    0  <0>0       -0.0012
     12  C8        10.9230   34.4300   61.1300 C.ar    0  <0>0        0.0366
     13  C2        13.7220   33.3370   63.4150 C.3     0  <0>0        0.0224
     14  C1        14.0440   31.9060   63.8530 C.3     0  <0>0        0.0047
     15  C3        14.8450   33.8630   62.5210 C.3     0  <0>0        0.0047
     16  C14        6.5720   35.1920   58.2510 C.3     0  <0>0       -0.0445
     17  N1         6.5920   36.6100   57.8330 N.4     0  <0>0        0.3937
     18  C19        7.3480   37.3750   58.8120 C.3     0  <0>0       -0.0422
     19  C18        7.7010   38.7820   58.3420 C.3     0  <0>0       -0.0190
     20  C20        6.4660   37.5170   60.0740 C.3     0  <0>0       -0.0210
     21  C21        8.6210   36.6350   59.2360 C.3     0  <0>0       -0.0210
     22  C17        8.3340   38.7430   56.9520 C.3     0  <0>0       -0.0040
     23  C16        7.3310   38.1030   55.9910 C.3     0  <0>0       -0.0190
     24  C15        7.0100   36.6800   56.4410 C.3     0  <0>0       -0.0422
     25  C22        8.2030   35.7630   56.1640 C.3     0  <0>0       -0.0210
     26  C23        5.8350   36.1760   55.5730 C.3     0  <0>0       -0.0210
     27  H40        5.6160   36.9340   57.8770 H       0  <0>0       -0.0792
     28  O3         4.6820   33.7960   57.6820 O.3     0  <0>0       -0.3841
     29  H39        3.7310   33.6230   57.7320 H       0  <0>0        0.2103
@<TRIPOS>BOND
     1    26    24    1
     2    23    24    1
     3    23    22    1
     4    25    24    1
     5    24    17    1
     6    22    19    1
     7    28    29    1
     8    28     1    1
     9    17    27    1
    10    17    16    1
    11    17    18    1
    12    16     1    1
    13    19    18    1
    14     1     2    1
    15    18    21    1
    16    18    20    1
    17     2     3    1
    18     3     4    1
    19     5     4    1
    20     5     6    1
    21     6     7    1
    22    12     7   ar
    23    12    11   ar
    24     7     8   ar
    25    11    10   ar
    26     8     9   ar
    27    15    13    1
    28    10     9   ar
    29    10    13    1
    30    13    14    1
