@<TRIPOS>MOLECULE
ZINC13983360_replica-1.pdb
 29 30 0 0 0
SMALL
GASTEIGER

@<TRIPOS>ATOM
      1  C12        1.1510   33.6500   57.3980 C.2     0  <0>0        0.2825
      2  O2         1.8960   32.7900   57.8200 O.2     0  <0>0       -0.2695
      3  N1         0.4820   33.4560   56.2450 N.am    0  <0>0       -0.2306
      4  H16       -0.1130   34.1430   55.9080 H       0  <0>0        0.1729
      5  N2         0.6470   32.2600   55.5320 N.am    0  <0>0       -0.2302
      6  C13       -0.3370   31.3410   55.5250 C.2     0  <0>0        0.2615
      7  O3        -1.3690   31.5460   56.1370 O.2     0  <0>0       -0.2686
      8  H17        1.4670   32.0970   55.0440 H       0  <0>0        0.1731
      9  C14       -0.1630   30.0890   54.7840 C.2     0  <0>0        0.0592
     10  C15       -1.1930   29.5720   54.0840 C.2     0  <0>0        0.0047
     11  C16       -1.0180   28.3140   53.3400 C.ar    0  <0>0        0.0001
     12  C21       -1.5760   28.1680   52.0650 C.ar    0  <0>0       -0.0003
     13  C20       -1.4070   26.9860   51.3750 C.ar    0  <0>0       -0.0043
     14  C19       -0.6890   25.9460   51.9390 C.ar    0  <0>0       -0.0218
     15  C18       -0.1340   26.0830   53.1990 C.ar    0  <0>0       -0.0043
     16  C22       -0.5110   24.6580   51.1770 C.3     0  <0>0        0.0310
     17  C17       -0.2890   27.2610   53.9010 C.ar    0  <0>0       -0.0003
     18  C11        0.9740   34.9350   58.1660 C.3     0  <0>0        0.2909
     19  O1         1.5590   36.0130   57.4320 O.3     0  <0>0       -0.4656
     20  C8         2.9140   36.0360   57.3420 C.ar    0  <0>0        0.1393
     21  C7         3.6880   36.0020   58.4940 C.ar    0  <0>0        0.0366
     22  C6         5.0650   36.0240   58.3990 C.ar    0  <0>0       -0.0012
     23  C5         5.6740   36.0810   57.1590 C.ar    0  <0>0       -0.0223
     24  C10        4.9060   36.1150   56.0100 C.ar    0  <0>0       -0.0012
     25  C9         3.5270   36.0860   56.0980 C.ar    0  <0>0        0.0366
     26  C3         7.1780   36.1050   57.0590 C.3     0  <0>0        0.0223
     27  C4         7.7420   34.7670   57.5420 C.3     0  <0>0        0.0047
     28  C2         7.7290   37.2350   57.9290 C.3     0  <0>0        0.0044
     29  C1         8.0030   38.4630   57.0580 C.3     0  <0>0        0.0003
@<TRIPOS>BOND
     1    16    14    1
     2    13    14   ar
     3    13    12   ar
     4    14    15   ar
     5    12    11   ar
     6    15    17   ar
     7    11    17   ar
     8    11    10    1
     9    10     9    2
    10     9     6    1
    11     8     5    1
    12     6     5   am
    13     6     7    2
    14     5     3    1
    15     4     3    1
    16    24    25   ar
    17    24    23   ar
    18    25    20   ar
    19     3     1   am
    20    29    28    1
    21    26    23    1
    22    26    27    1
    23    26    28    1
    24    23    22   ar
    25    20    19    1
    26    20    21   ar
    27     1     2    2
    28     1    18    1
    29    19    18    1
    30    22    21   ar
