@<TRIPOS>MOLECULE
ZINC10137847_replica-1.pdb
 24 26 0 0 0
SMALL
GASTEIGER

@<TRIPOS>ATOM
      1  C8         1.2310   28.7340   57.9360 C.2     0  <0>0        0.2521
      2  O1         2.1340   27.9840   58.2600 O.2     0  <0>0       -0.2696
      3  N3         0.4410   28.4240   56.8890 N.am    0  <0>0       -0.2983
      4  H9        -0.2780   29.0220   56.6310 H       0  <0>0        0.1500
      5  C5         1.0030   29.9730   58.6850 C.ar    0  <0>0        0.0842
      6  C4         0.8990   31.2470   58.2120 C.ar    0  <0>0        0.0143
      7  C3         0.6770   32.3050   59.1070 C.ar    0  <0>0        0.0393
      8  C2         0.5080   33.7280   59.0850 C.ar    0  <0>0        0.0809
      9  C6         0.5770   31.9510   60.4610 C.ar    0  <0>0        0.1086
     10  C1         0.5330   34.5920   57.8510 C.3     0  <0>0        0.0540
     11  N2         0.3270   34.1530   60.2980 N.ar    0  <0>0       -0.1731
     12  N1         0.3650   33.0680   61.1830 N.ar    0  <0>0       -0.2431
     13  C7         0.2030   33.1360   62.6380 C.3     0  <0>0        0.1543
     14  S1         0.7850   30.1900   60.4420 S.2     0  <0>0       -0.0638
     15  C9         0.6690   27.1850   56.1410 C.3     0  <0>0        0.0945
     16  C10        0.0490   26.0100   56.9000 C.3     0  <0>0        0.0262
     17  C11        0.0320   27.2970   54.7790 C.ar    0  <0>0       -0.0036
     18  C16        0.0960   26.2340   53.8990 C.ar    0  <0>0        0.0096
     19  C15       -0.4890   26.3350   52.6490 C.ar    0  <0>0        0.0679
     20  C14       -1.1370   27.5010   52.2810 C.ar    0  <0>0        0.0682
     21 Cl         -0.4090   25.0000   51.5420 Cl      0  <0>0       -0.0814
     22  C13       -1.2010   28.5640   53.1650 C.ar    0  <0>0        0.0120
     23 Cl         -1.8720   27.6300   50.7150 Cl      0  <0>0       -0.0814
     24  C12       -0.6200   28.4590   54.4150 C.ar    0  <0>0       -0.0018
@<TRIPOS>BOND
     1    23    20    1
     2    21    19    1
     3    20    19   ar
     4    20    22   ar
     5    19    18   ar
     6    22    24   ar
     7    18    17   ar
     8    24    17   ar
     9    17    15    1
    10    15     3    1
    11    15    16    1
    12     4     3    1
    13     3     1   am
    14    10     8    1
    15     1     2    2
    16     1     5    1
    17     6     5   ar
    18     6     7   ar
    19     5    14   ar
    20     8     7   ar
    21     8    11   ar
    22     7     9   ar
    23    11    12   ar
    24    14     9   ar
    25     9    12   ar
    26    12    13    1
