@<TRIPOS>MOLECULE
ZINC39458383_replica-1.pdb
 27 30 0 0 0
SMALL
GASTEIGER

@<TRIPOS>ATOM
      1  C1        10.3170   35.1600   60.1160 C.3     0  <0>0        0.0513
      2  C2         8.9180   34.6110   60.0030 C.ar    0  <0>0        0.0521
      3  C3         8.5000   33.4100   60.4700 C.ar    0  <0>0        0.0671
      4  C4         7.1430   33.2850   60.1620 C.ar    0  <0>0        0.0075
      5  C5         6.7540   34.4200   59.5010 C.ar    0  <0>0        0.0784
      6  N1         7.8610   35.2400   59.4190 N.ar    0  <0>0       -0.3054
      7  C12        5.4250   34.7460   58.9610 C.ar    0  <0>0        0.1002
      8  C13        4.2170   34.3240   59.5310 C.ar    0  <0>0        0.0595
      9  C14        3.0070   34.8360   58.9730 C.ar    0  <0>0        0.0310
     10  C15        3.0720   35.6320   57.8360 C.ar    0  <0>0        0.0269
     11  C16        4.3040   35.9270   57.2900 C.ar    0  <0>0        0.0994
     12  N2         5.4120   35.4970   57.8520 N.ar    0  <0>0       -0.2423
     13  C18        4.0560   33.4000   60.5770 C.2     0  <0>0        0.1754
     14  O2         2.9090   33.2070   60.9250 O.2     0  <0>0       -0.2913
     15  C19        5.0680   32.6360   61.3080 C.3     0  <0>0        0.0740
     16  C20        6.2300   32.1400   60.4790 C.3     0  <0>0        0.0369
     17 Cl          9.4740   32.2390   61.3030 Cl      0  <0>0       -0.0814
     18  C6         7.8930   36.5110   58.8300 C.ar    0  <0>0        0.0977
     19  C11        7.4760   37.6280   59.5520 C.ar    0  <0>0        0.1496
     20  C10        7.5150   38.8820   58.9650 C.ar    0  <0>0        0.0381
     21  C9         7.9570   39.0230   57.6630 C.ar    0  <0>0        0.0032
     22  C8         8.3650   37.9150   56.9440 C.ar    0  <0>0        0.0017
     23  C7         8.3340   36.6610   57.5230 C.ar    0  <0>0        0.0206
     24  O1         7.0380   37.4870   60.8310 O.3     0  <0>0       -0.5040
     25  H8         7.7450   37.4880   61.4910 H       0  <0>0        0.2923
     26  S1         1.4540   34.4640   59.7160 S.3     0  <0>0       -0.1125
     27  C17        0.3820   34.0550   58.3110 C.3     0  <0>0        0.0742
@<TRIPOS>BOND
     1    22    23   ar
     2    22    21   ar
     3    11    10   ar
     4    11    12   ar
     5    23    18   ar
     6    21    20   ar
     7    10     9   ar
     8    12     7   ar
     9    27    26    1
    10    18     6    1
    11    18    19   ar
    12     7     5    1
    13     7     8   ar
    14    20    19   ar
    15     9     8   ar
    16     9    26    1
    17     6     5   ar
    18     6     2   ar
    19     5     4   ar
    20     8    13    1
    21    19    24    1
    22     2     1    1
    23     2     3   ar
    24     4     3   ar
    25     4    16    1
    26     3    17    1
    27    16    15    1
    28    13    14    2
    29    13    15    1
    30    24    25    1
