@<TRIPOS>MOLECULE
ZINC50593164_replica-1.pdb
 20 21 0 0 0
SMALL
GASTEIGER

@<TRIPOS>ATOM
      1  C5        11.0630   34.9130   61.1030 C.ar    0  <0>0        0.0920
      2  C6        10.5380   34.5130   59.8830 C.ar    0  <0>0        0.0198
      3  C7         9.6810   35.3470   59.1920 C.ar    0  <0>0        0.0054
      4  C8         9.3380   36.5850   59.7080 C.ar    0  <0>0        0.0722
      5  C9         9.8510   36.9990   60.9200 C.ar    0  <0>0        0.0157
      6  C10       10.7150   36.1640   61.6320 C.ar    0  <0>0        0.0860
      7  C11       11.2460   36.5860   62.8940 C.1     0  <0>0        0.1019
      8  N3        11.6680   36.9200   63.8940 N.1     0  <0>0       -0.1908
      9  N1        11.9310   34.0710   61.8040 N.ar    0  <0>0       -0.2328
     10  C4        11.6050   32.8790   62.3700 C.ar    0  <0>0        0.0682
     11  C3        12.7240   32.3830   62.9480 C.ar    0  <0>0        0.0633
     12  C13       10.2460   32.2290   62.3570 C.3     0  <0>0        0.0527
     13  C2        13.7630   33.2940   62.7310 C.ar    0  <0>0        0.0866
     14 Br         12.8570   30.7450   63.8860 Br      0  <0>0       -0.0465
     15  C1        15.1850   33.1390   63.2050 C.3     0  <0>0        0.0545
     16  N2        13.2890   34.3070   62.0510 N.ar    0  <0>0       -0.1693
     17  C12        8.4020   37.4840   58.9440 C.3     0  <0>0        0.4186
     18  F1         8.1520   38.6410   59.6910 F       0  <0>0       -0.1659
     19  F2         8.9850   37.8360   57.7220 F       0  <0>0       -0.1659
     20  F3         7.1980   36.8120   58.7090 F       0  <0>0       -0.1659
@<TRIPOS>BOND
     1    19    17    1
     2    20    17    1
     3    17    18    1
     4    17     4    1
     5     3     4   ar
     6     3     2   ar
     7     4     5   ar
     8     2     1   ar
     9     5     6   ar
    10     1     6   ar
    11     1     9    1
    12     6     7    1
    13     9    16   ar
    14     9    10   ar
    15    16    13   ar
    16    12    10    1
    17    10    11   ar
    18    13    11   ar
    19    13    15    1
    20     7     8    3
    21    11    14    1
