@<TRIPOS>MOLECULE
ZINC51952287_replica-1.pdb
 19 20 0 0 0
SMALL
GASTEIGER

@<TRIPOS>ATOM
      1  C6        10.7530   34.6060   61.5080 C.ar    0  <0>0        0.0003
      2  C7        10.0950   34.0720   60.4160 C.ar    0  <0>0        0.0162
      3  C8         9.4610   34.9120   59.5150 C.ar    0  <0>0        0.0795
      4  C9         9.4880   36.2940   59.7130 C.ar    0  <0>0        0.0802
      5  C10       10.1500   36.8210   60.8110 C.ar    0  <0>0        0.0252
      6  C11       10.7750   35.9760   61.7090 C.ar    0  <0>0        0.0333
      7 Br         11.6700   36.6940   63.2110 Br      0  <0>0       -0.0492
      8  N1         8.7770   36.8660   58.6610 N.ar    0  <0>0       -0.2779
      9  C12        8.3380   35.8770   57.8600 C.ar    0  <0>0        0.3316
     10  O1         7.6820   36.0360   56.8460 O.2     0  <0>0       -0.2463
     11  N2         8.7340   34.6880   58.3470 N.ar    0  <0>0       -0.2779
     12  C13        8.4500   33.3790   57.7530 C.3     0  <0>0        0.1351
     13  C14        8.5460   38.2990   58.4600 C.3     0  <0>0        0.1351
     14  C5        11.4420   33.6930   62.4890 C.3     0  <0>0        0.1025
     15 Cl         10.5970   32.1010   62.5250 Cl      0  <0>0       -0.1102
     16  C4        12.8960   33.4900   62.0600 C.3     0  <0>0        0.0207
     17  C2        13.7660   33.2610   63.2980 C.3     0  <0>0        0.0016
     18  C1        13.8150   31.7650   63.6180 C.3     0  <0>0        0.0001
     19  C3        15.1830   33.7700   63.0280 C.3     0  <0>0        0.0001
@<TRIPOS>BOND
     1    10     9    2
     2    12    11    1
     3     9    11   ar
     4     9     8   ar
     5    11     3   ar
     6    13     8    1
     7     8     4   ar
     8     3     4   ar
     9     3     2   ar
    10     4     5   ar
    11     2     1   ar
    12     5     6   ar
    13     1     6   ar
    14     1    14    1
    15     6     7    1
    16    16    14    1
    17    16    17    1
    18    14    15    1
    19    19    17    1
    20    17    18    1
