@<TRIPOS>MOLECULE
ZINC13343254_replica-1.pdb
 27 28 0 0 0
SMALL
GASTEIGER

@<TRIPOS>ATOM
      1  N1         6.9280   36.4050   58.9100 N.3     0  <0>0       -0.1761
      2  H15        6.3590   36.5870   59.6740 H       0  <0>0        0.1491
      3  S1         8.3950   37.1610   58.7720 S.O2    0  <0>0        0.0605
      4  O1         8.8660   36.8950   57.4580 O.2     0  <0>0       -0.1530
      5  O2         8.2200   38.4820   59.2660 O.2     0  <0>0       -0.1530
      6  C8         9.5030   36.3520   59.8770 C.ar    0  <0>0        0.1219
      7  C7        10.0200   35.1100   59.5530 C.ar    0  <0>0        0.0196
      8  C6        10.8890   34.4760   60.4210 C.ar    0  <0>0       -0.0029
      9  C5        11.2430   35.0820   61.6110 C.ar    0  <0>0       -0.0224
     10  C10       10.7260   36.3230   61.9350 C.ar    0  <0>0       -0.0029
     11  C9         9.8610   36.9590   61.0660 C.ar    0  <0>0        0.0196
     12  C3        12.1900   34.3900   62.5570 C.3     0  <0>0        0.0223
     13  C4        11.6790   32.9760   62.8460 C.3     0  <0>0        0.0047
     14  C2        13.5790   34.3100   61.9210 C.3     0  <0>0        0.0044
     15  C1        14.5210   33.5380   62.8470 C.3     0  <0>0        0.0003
     16  C11        6.4890   35.4640   57.8770 C.3     0  <0>0        0.1089
     17  C12        6.7780   34.0320   58.3360 C.3     0  <0>0        0.1358
     18  C13        7.6040   33.3280   57.2910 C.2     0  <0>0        0.3666
     19  O3         8.4850   32.5720   57.6240 O.co2   0  <0>0       -0.2456
     20  O4         7.3590   33.5410   55.9880 O.co2   0  <0>0       -0.2456
     21  C14        5.0090   35.6270   57.6440 C.ar    0  <0>0       -0.0058
     22  C19        4.1580   35.8180   58.7170 C.ar    0  <0>0       -0.0021
     23  C18        2.8000   35.9620   58.5040 C.ar    0  <0>0        0.0111
     24  C17        2.2930   35.9210   57.2170 C.ar    0  <0>0        0.0577
     25  C16        3.1460   35.7350   56.1440 C.ar    0  <0>0        0.0111
     26 Cl          0.5870   36.1000   56.9490 Cl      0  <0>0       -0.0822
     27  C15        4.5040   35.5910   56.3580 C.ar    0  <0>0       -0.0021
@<TRIPOS>BOND
     1    20    18   ar
     2    25    27   ar
     3    25    24   ar
     4    27    21   ar
     5    26    24    1
     6    24    23   ar
     7    18    19   ar
     8    18    17    1
     9     4     3    2
    10    21    16    1
    11    21    22   ar
    12    16    17    1
    13    16     1    1
    14    23    22   ar
    15     3     1    1
    16     3     5    2
    17     3     6    1
    18     1     2    1
    19     7     6   ar
    20     7     8   ar
    21     6    11   ar
    22     8     9   ar
    23    11    10   ar
    24     9    10   ar
    25     9    12    1
    26    14    12    1
    27    14    15    1
    28    12    13    1
