@<TRIPOS>MOLECULE
ZINC37206864_replica-1.pdb
 20 22 0 0 0
SMALL
GASTEIGER

@<TRIPOS>ATOM
      1  C7        11.5190   35.2470   61.8430 C.2     0  <0>0        0.2152
      2  N2        11.1470   34.7280   60.6940 N.2     0  <0>0       -0.3799
      3  C8        10.2320   35.3170   59.8940 C.2     0  <0>0        0.1413
      4  C9         9.7480   34.8670   58.6430 C.2     0  <0>0        0.0581
      5  C10        8.8110   35.5930   57.9520 C.2     0  <0>0        0.1246
      6  C11        8.3070   36.7870   58.4520 C.3     0  <0>0        0.0832
      7  C12        8.7590   37.2550   59.6730 C.2     0  <0>0       -0.0098
      8  C13        9.6970   36.5350   60.3690 C.2     0  <0>0        0.0589
      9  S1        10.5340   36.7360   61.9240 S.3     0  <0>0       -0.0377
     10  F2         8.3690   35.1370   56.7600 F       0  <0>0       -0.2084
     11  N1        12.4330   34.7620   62.7560 N.pl3   0  <0>0       -0.2821
     12  H4        13.0360   35.3720   63.2100 H       0  <0>0        0.1551
     13  C3        12.4910   33.3910   63.0300 C.ar    0  <0>0        0.0613
     14  C2        11.3250   32.6370   63.0540 C.ar    0  <0>0        0.0178
     15  C1        11.3840   31.2840   63.3230 C.ar    0  <0>0        0.0310
     16  C6        12.6030   30.6780   63.5700 C.ar    0  <0>0        0.1411
     17  C5        13.7690   31.4270   63.5470 C.ar    0  <0>0        0.0423
     18  F1        12.6580   29.3540   63.8340 F       0  <0>0       -0.2041
     19  C4        13.7150   32.7810   63.2780 C.ar    0  <0>0        0.0733
     20 Cl         15.1750   33.7200   63.2480 Cl      0  <0>0       -0.0809
@<TRIPOS>BOND
     1    10     5    1
     2     5     6    1
     3     5     4    2
     4     6     7    1
     5     4     3    1
     6     7     8    2
     7     3     8    1
     8     3     2    2
     9     8     9    1
    10     2     1    2
    11     1     9    1
    12     1    11    1
    13    11    13    1
    14    11    12    1
    15    13    14   ar
    16    13    19   ar
    17    14    15   ar
    18    20    19    1
    19    19    17   ar
    20    15    16   ar
    21    17    16   ar
    22    16    18    1
