@<TRIPOS>MOLECULE
ZINC50268148_replica-1.pdb
 19 20 0 0 0
SMALL
GASTEIGER

@<TRIPOS>ATOM
      1  C5         8.7450   36.8740   59.1350 C.ar    0  <0>0       -0.0224
      2  C6         9.0820   35.6360   58.6190 C.ar    0  <0>0       -0.0030
      3  C7        10.0040   34.8420   59.2710 C.ar    0  <0>0        0.0140
      4  C8        10.5950   35.2890   60.4470 C.ar    0  <0>0        0.0447
      5  C9        10.2540   36.5330   60.9620 C.ar    0  <0>0        0.0140
      6  C10        9.3350   37.3250   60.3020 C.ar    0  <0>0       -0.0030
      7  N1        11.5280   34.4880   61.1090 N.pl3   0  <0>0       -0.3298
      8  H15       11.8310   33.6610   60.7050 H       0  <0>0        0.1469
      9  C11       12.0480   34.8980   62.4160 C.3     0  <0>0        0.1312
     10  C12       12.4390   33.6570   63.2220 C.3     0  <0>0        0.1857
     11  O1        11.5620   32.5750   62.8980 O.2     0  <0>0       -0.4747
     12  C16       11.9150   31.3370   63.3100 C.2     0  <0>0        0.1675
     13  C15       13.1230   31.0260   63.6980 C.2     0  <0>0        0.0140
     14  C14       14.2450   32.0290   63.7300 C.3     0  <0>0        0.0331
     15  C13       13.8730   33.2390   62.8660 C.3     0  <0>0        0.0501
     16  C3         7.7380   37.7380   58.4200 C.3     0  <0>0        0.0223
     17  C4         8.4690   38.7840   57.5770 C.3     0  <0>0        0.0047
     18  C2         6.8500   38.4430   59.4480 C.3     0  <0>0        0.0044
     19  C1         5.8010   37.4610   59.9750 C.3     0  <0>0        0.0003
@<TRIPOS>BOND
     1    17    16    1
     2    16     1    1
     3    16    18    1
     4     2     1   ar
     5     2     3   ar
     6     1     6   ar
     7     3     4   ar
     8    18    19    1
     9     6     5   ar
    10     4     5   ar
    11     4     7    1
    12     8     7    1
    13     7     9    1
    14     9    10    1
    15    15    10    1
    16    15    14    1
    17    11    10    1
    18    11    12    1
    19    12    13    2
    20    13    14    1
