@<TRIPOS>MOLECULE
ZINC16731624_replica-1.pdb
 35 38 0 0 0
SMALL
GASTEIGER

@<TRIPOS>ATOM
      1  C10       10.1520   34.1830   61.0700 C.2     0  <0>0        0.1313
      2  C11        9.9360   35.5120   60.6920 C.2     0  <0>0        0.0324
      3  C12        8.7920   35.8690   60.0440 C.2     0  <0>0        0.0639
      4  C13        7.8200   34.8750   59.7560 C.3     0  <0>0        0.1207
      5  C14        6.5420   35.0290   59.0820 C.2     0  <0>0        0.0388
      6  C15        5.7530   33.9060   58.9110 C.2     0  <0>0        0.0799
      7  S1         6.7160   32.6070   59.6580 S.3     0  <0>0       -0.0550
      8  C16        8.1250   33.5590   60.1740 C.2     0  <0>0        0.1474
      9  N1         9.2410   33.2550   60.7990 N.2     0  <0>0       -0.3991
     10  C7        11.4000   33.8090   61.7730 C.ar    0  <0>0        0.0298
     11  C6        11.4380   32.6640   62.5690 C.ar    0  <0>0        0.0057
     12  C5        12.6010   32.3180   63.2230 C.ar    0  <0>0        0.0370
     13  C4        13.7350   33.1090   63.0900 C.ar    0  <0>0        0.1391
     14  C9        13.7020   34.2500   62.2990 C.ar    0  <0>0        0.0370
     15  C8        12.5430   34.5970   61.6370 C.ar    0  <0>0        0.0057
     16  O1        14.8790   32.7660   63.7360 O.3     0  <0>0       -0.4707
     17  C3        15.4340   33.7330   64.6310 C.3     0  <0>0        0.2318
     18  C2        16.7440   34.2350   64.0800 C.2     0  <0>0        0.0207
     19  C1        17.6950   34.6160   64.8950 C.2     0  <0>0       -0.0011
     20  C24        8.5600   37.3020   59.6390 C.3     0  <0>0        0.4157
     21  F1         9.6170   38.0930   60.1020 F       0  <0>0       -0.1661
     22  F2         8.4900   37.3860   58.2440 F       0  <0>0       -0.1661
     23  F3         7.3590   37.7550   60.1950 F       0  <0>0       -0.1661
     24  N2         6.1250   36.2680   58.6220 N.pl3   0  <0>0       -0.3592
     25  H15        6.7700   36.9800   58.4920 H       0  <0>0        0.1421
     26  H16        5.1860   36.4230   58.4300 H       0  <0>0        0.1421
     27  C17        4.4830   33.8130   58.2960 C.2     0  <0>0        0.2024
     28  O2         4.3990   33.6650   57.0900 O.2     0  <0>0       -0.2860
     29  C18        3.2570   33.8950   59.1180 C.ar    0  <0>0        0.0395
     30  C23        3.0920   33.0470   60.2160 C.ar    0  <0>0        0.0041
     31  C22        1.9460   33.1280   60.9790 C.ar    0  <0>0        0.0115
     32  C21        0.9590   34.0460   60.6590 C.ar    0  <0>0        0.0577
     33  C20        1.1170   34.8880   59.5700 C.ar    0  <0>0        0.0115
     34 Cl         -0.4800   34.1410   61.6240 Cl      0  <0>0       -0.0822
     35  C19        2.2620   34.8220   58.8040 C.ar    0  <0>0        0.0041
@<TRIPOS>BOND
     1    28    27    2
     2    22    20    1
     3    27     6    1
     4    27    29    1
     5    26    24    1
     6    25    24    1
     7    24     5    1
     8    35    29   ar
     9    35    33   ar
    10     6     5    2
    11     6     7    1
    12     5     4    1
    13    29    30   ar
    14    33    32   ar
    15    20     3    1
    16    20    21    1
    17    20    23    1
    18     7     8    1
    19     4     3    1
    20     4     8    1
    21     3     2    2
    22     8     9    2
    23    30    31   ar
    24    32    31   ar
    25    32    34    1
    26     2     1    1
    27     9     1    2
    28     1    10    1
    29    15    10   ar
    30    15    14   ar
    31    10    11   ar
    32    14    13   ar
    33    11    12   ar
    34    13    12   ar
    35    13    16    1
    36    16    17    1
    37    18    17    1
    38    18    19    2
