@<TRIPOS>MOLECULE
ZINC05427475_replica-1.pdb
 21 23 0 0 0
SMALL
GASTEIGER

@<TRIPOS>ATOM
      1  C1        -0.4870   24.2100   51.3440 C.3     0  <0>0        0.0324
      2  C2        -0.7070   25.6110   51.8540 C.2     0  <0>0       -0.0064
      3  C3        -1.4860   26.5110   51.1130 C.2     0  <0>0        0.0010
      4  C4        -1.6810   27.7760   51.5810 C.2     0  <0>0        0.0481
      5  C5        -1.0980   28.1590   52.8030 C.2     0  <0>0        0.1921
      6  N1        -1.2880   29.3940   53.2630 N.2     0  <0>0       -0.3935
      7  C6        -0.7570   29.7920   54.4080 C.2     0  <0>0        0.1087
      8  C7         0.0120   28.9200   55.1540 C.3     0  <0>0        0.1411
      9  C8         0.2170   27.6200   54.6770 C.2     0  <0>0        0.2418
     10  O1         0.8920   26.8260   55.3130 O.2     0  <0>0       -0.2737
     11  N2        -0.3450   27.2580   53.5040 N.am    0  <0>0       -0.2111
     12  C9        -0.1590   25.9960   53.0290 C.2     0  <0>0        0.0701
     13  C10       -0.9920   31.1970   54.8990 C.3     0  <0>0        0.1168
     14  S1        -0.9330   31.2220   56.7120 S.3     0  <0>0       -0.1064
     15  C11        0.2560   32.4680   57.0830 C.ar    0  <0>0        0.0256
     16  C16        1.5020   32.4470   56.4710 C.ar    0  <0>0        0.0067
     17  C15        2.4290   33.4270   56.7600 C.ar    0  <0>0        0.0072
     18  C14        2.1230   34.4260   57.6690 C.ar    0  <0>0        0.0346
     19  C13        0.8850   34.4460   58.2860 C.ar    0  <0>0        0.0072
     20 Br          3.3980   35.7630   58.0690 Br      0  <0>0       -0.0490
     21  C12       -0.0500   33.4710   57.9960 C.ar    0  <0>0        0.0067
@<TRIPOS>BOND
     1     3     4    2
     2     3     2    1
     3     1     2    1
     4     4     5    1
     5     2    12    2
     6     5     6    2
     7     5    11    1
     8    12    11    1
     9     6     7    2
    10    11     9   am
    11     7    13    1
    12     7     8    1
    13     9     8    1
    14     9    10    2
    15    13    14    1
    16    16    17   ar
    17    16    15   ar
    18    14    15    1
    19    17    18   ar
    20    15    21   ar
    21    18    20    1
    22    18    19   ar
    23    21    19   ar
