@<TRIPOS>MOLECULE
ZINC27500357_replica-1.pdb
 28 31 0 0 0
SMALL
GASTEIGER

@<TRIPOS>ATOM
      1  C8        10.5860   35.6550   61.1600 C.ar    0  <0>0        0.1390
      2  C9        10.4670   34.8580   60.0260 C.ar    0  <0>0        0.0366
      3  C10        9.7470   35.3000   58.9470 C.ar    0  <0>0       -0.0007
      4  C11        9.1420   36.5640   58.9820 C.ar    0  <0>0       -0.0147
      5  C12        9.2700   37.3660   60.1260 C.ar    0  <0>0       -0.0007
      6  C13        9.9870   36.9090   61.2020 C.ar    0  <0>0        0.0366
      7  C14        8.3770   37.0460   57.8290 C.3     0  <0>0        0.0922
      8  C15        7.0950   36.5860   57.6100 C.2     0  <0>0        0.1923
      9  N1         6.1890   36.1900   58.5490 N.2     0  <0>0       -0.3648
     10  C17        5.0880   35.8250   57.9520 C.2     0  <0>0        0.2843
     11  O3         5.1900   35.9410   56.6140 O.3     0  <0>0       -0.3911
     12  C16        6.4200   36.4120   56.3130 C.2     0  <0>0        0.3738
     13  O2         6.8710   36.6440   55.2070 O.2     0  <0>0       -0.2419
     14  C18        3.8830   35.3390   58.6540 C.ar    0  <0>0        0.0665
     15  C23        3.9810   34.2920   59.5720 C.ar    0  <0>0        0.0063
     16  C22        2.8530   33.8420   60.2240 C.ar    0  <0>0        0.0069
     17  C21        1.6240   34.4260   59.9690 C.ar    0  <0>0        0.0346
     18  C20        1.5180   35.4640   59.0590 C.ar    0  <0>0        0.0069
     19 Br          0.0800   33.8020   60.8670 Br      0  <0>0       -0.0490
     20  C19        2.6410   35.9280   58.4050 C.ar    0  <0>0        0.0063
     21  O1        11.2950   35.2090   62.2280 O.3     0  <0>0       -0.4706
     22  C7        12.5930   34.6710   61.9660 C.3     0  <0>0        0.2320
     23  C4        12.7330   33.3370   62.6550 C.ar    0  <0>0        0.0212
     24  C3        13.9570   32.9470   63.1640 C.ar    0  <0>0       -0.0007
     25  C2        14.0850   31.7230   63.7940 C.ar    0  <0>0       -0.0002
     26  C1        12.9900   30.8880   63.9120 C.ar    0  <0>0       -0.0000
     27  C6        11.7640   31.2800   63.4060 C.ar    0  <0>0       -0.0002
     28  C5        11.6360   32.5040   62.7760 C.ar    0  <0>0       -0.0007
@<TRIPOS>BOND
     1    13    12    2
     2    12    11    1
     3    12     8    1
     4    11    10    1
     5     8     7    1
     6     8     9    2
     7     7     4    1
     8    10     9    2
     9    10    14    1
    10    20    14   ar
    11    20    18   ar
    12    14    15   ar
    13     3     4   ar
    14     3     2   ar
    15     4     5   ar
    16    18    17   ar
    17    15    16   ar
    18    17    16   ar
    19    17    19    1
    20     2     1   ar
    21     5     6   ar
    22     1     6   ar
    23     1    21    1
    24    22    21    1
    25    22    23    1
    26    23    28   ar
    27    23    24   ar
    28    28    27   ar
    29    24    25   ar
    30    27    26   ar
    31    25    26   ar
