@<TRIPOS>MOLECULE
ZINC12290998_replica-1.pdb
 28 32 0 0 0
SMALL
GASTEIGER

@<TRIPOS>ATOM
      1  S1         8.5510   36.9960   60.0260 S.3     0  <0>0        0.0506
      2  O1         8.3640   36.5700   61.3680 O.3     0  <0>0       -0.0570
      3  O2         8.8820   38.3370   59.6910 O.3     0  <0>0       -0.0570
      4  C7         7.0620   36.6150   59.1650 C.ar    0  <0>0        0.1203
      5  C5         7.0730   36.4660   57.7670 C.ar    0  <0>0        0.0190
      6  C4         5.8660   36.1550   57.0920 C.ar    0  <0>0        0.0075
      7  C6         8.2610   36.6030   57.0280 C.ar    0  <0>0        0.0013
      8  C3         5.8790   36.0000   55.6950 C.ar    0  <0>0        0.0005
      9  C10        4.6800   36.0130   57.8310 C.ar    0  <0>0        0.0346
     10  C2         7.0470   36.1430   55.0120 C.ar    0  <0>0        0.0000
     11  C1         8.2340   36.4440   55.6770 C.ar    0  <0>0        0.0000
     12  C9         4.7060   36.1700   59.1840 C.ar    0  <0>0        0.0081
     13 Br          3.0550   35.6050   56.9530 Br      0  <0>0       -0.0490
     14  C8         5.8940   36.4710   59.8480 C.ar    0  <0>0        0.0203
     15  O3         9.6470   36.1180   59.4400 O.3     0  <0>0       -0.3572
     16  C11        9.9490   35.0300   60.1980 C.ar    0  <0>0        0.1720
     17  C16       11.1670   34.9570   60.8480 C.ar    0  <0>0        0.0429
     18  C15       11.4680   33.8420   61.6230 C.ar    0  <0>0        0.0406
     19  C14       10.5450   32.7940   61.7460 C.ar    0  <0>0        0.1455
     20  C17       12.6360   33.4410   62.4310 C.ar    0  <0>0        0.0376
     21  C13        9.3250   32.8840   61.0860 C.ar    0  <0>0        0.0407
     22  O4        11.0820   31.8410   62.5400 O.2     0  <0>0       -0.4535
     23  C12        9.0320   33.9930   60.3200 C.ar    0  <0>0        0.0429
     24  C22       12.3140   32.1880   62.9700 C.ar    0  <0>0        0.1453
     25  C21       13.2350   31.5470   63.7900 C.ar    0  <0>0        0.0375
     26  C20       14.4480   32.1420   64.0640 C.ar    0  <0>0        0.0031
     27  C19       14.7650   33.3810   63.5290 C.ar    0  <0>0        0.0002
     28  C18       13.8630   34.0330   62.7140 C.ar    0  <0>0        0.0031
@<TRIPOS>BOND
     1    10    11   ar
     2    10     8   ar
     3    11     7   ar
     4     8     6   ar
     5    13     9    1
     6     7     5   ar
     7     6     5   ar
     8     6     9   ar
     9     5     4   ar
    10     9    12   ar
    11     4    14   ar
    12     4     1    1
    13    12    14   ar
    14    15     1    1
    15    15    16    1
    16     3     1    1
    17     1     2    1
    18    16    23   ar
    19    16    17   ar
    20    23    21   ar
    21    17    18   ar
    22    21    19   ar
    23    18    19   ar
    24    18    20   ar
    25    19    22   ar
    26    20    28   ar
    27    20    24   ar
    28    22    24   ar
    29    28    27   ar
    30    24    25   ar
    31    27    26   ar
    32    25    26   ar
