@<TRIPOS>MOLECULE
ZINC02963660_replica-1.pdb
 26 29 0 0 0
SMALL
GASTEIGER

@<TRIPOS>ATOM
      1  N1         7.0860   35.7230   58.1080 N.am    0  <0>0       -0.2421
      2  C8         6.9330   36.6570   57.1560 C.2     0  <0>0        0.1409
      3  S1         7.7440   38.1540   57.3320 S.2     0  <0>0       -0.0182
      4  N2         6.1630   36.4610   56.0740 N.am    0  <0>0       -0.3133
      5  C9         5.4090   35.2060   55.9290 C.3     0  <0>0        0.1014
      6  C10        6.2610   34.0720   56.5070 C.3     0  <0>0        0.0846
      7  C11        6.4960   34.3930   57.9890 C.3     0  <0>0        0.2013
      8  O1         5.2450   34.3290   58.6690 O.3     0  <0>0       -0.4625
      9  C12        4.1600   34.9120   58.0950 C.ar    0  <0>0        0.1714
     10  C13        4.1680   35.3440   56.7830 C.ar    0  <0>0        0.0327
     11  C14        3.0370   35.9210   56.2320 C.ar    0  <0>0        0.0005
     12  C15        1.8950   36.0780   56.9940 C.ar    0  <0>0        0.0030
     13  C16        1.8790   35.6550   58.3100 C.ar    0  <0>0        0.0400
     14  C17        3.0060   35.0740   58.8640 C.ar    0  <0>0        0.1722
     15  C19        7.4530   33.3590   58.5870 C.3     0  <0>0        0.0659
     16  H8         6.1110   37.1400   55.3830 H       0  <0>0        0.1487
     17  C7         7.8330   36.0340   59.2500 C.ar    0  <0>0        0.0478
     18  C2         7.2270   36.6680   60.3260 C.ar    0  <0>0       -0.0084
     19  C1         5.7640   37.0220   60.2670 C.3     0  <0>0        0.0323
     20  C3         7.9660   36.9700   61.4540 C.ar    0  <0>0       -0.0030
     21  C4         9.3110   36.6510   61.5050 C.ar    0  <0>0       -0.0006
     22  C5         9.9180   36.0240   60.4330 C.ar    0  <0>0       -0.0030
     23  C6         9.1830   35.7160   59.3050 C.ar    0  <0>0       -0.0084
     24  C20        9.8460   35.0330   58.1360 C.3     0  <0>0        0.0323
     25  O2         2.9890   34.6580   60.1590 O.3     0  <0>0       -0.4684
     26  C18        2.0730   33.6130   60.4930 C.3     0  <0>0        0.2526
@<TRIPOS>BOND
     1    16     4    1
     2     5     4    1
     3     5     6    1
     4     5    10    1
     5     4     2    1
     6    11    10   ar
     7    11    12   ar
     8     6     7    1
     9    10     9   ar
    10    12    13   ar
    11     2     3    2
    12     2     1    1
    13     7     1    1
    14     7    15    1
    15     7     8    1
    16     9     8    1
    17     9    14   ar
    18     1    17    1
    19    24    23    1
    20    13    14   ar
    21    14    25    1
    22    17    23   ar
    23    17    18   ar
    24    23    22   ar
    25    25    26    1
    26    19    18    1
    27    18    20   ar
    28    22    21   ar
    29    20    21   ar
