@<TRIPOS>MOLECULE
ZINC21231260_replica-1.pdb
 34 38 0 0 0
SMALL
GASTEIGER

@<TRIPOS>ATOM
      1  C9         0.0020   31.1700   57.8950 C.3     0  <0>0        0.1186
      2  C10       -0.0260   30.1910   56.7440 C.2     0  <0>0        0.0436
      3  C11        0.3220   28.8950   56.8050 C.2     0  <0>0        0.0262
      4  C12        0.2900   28.0340   55.5510 C.3     0  <0>0        0.0458
      5  C13       -0.8520   28.4870   54.6420 C.3     0  <0>0        0.0356
      6  C14       -0.5960   29.9510   54.2670 C.3     0  <0>0        0.0736
      7  C15       -0.4700   30.7550   55.5260 C.2     0  <0>0        0.1722
      8  O2        -0.7590   31.9350   55.4980 O.2     0  <0>0       -0.2916
      9  N1         0.7320   28.2450   57.9240 N.pl3   0  <0>0       -0.3150
     10  C22        1.6860   28.7270   58.8160 C.ar    0  <0>0        0.0614
     11  C23        2.8810   28.0710   59.0470 C.ar    0  <0>0        0.0158
     12  C24        3.7510   28.5640   60.0060 C.ar    0  <0>0        0.0014
     13  C25        3.4250   29.7000   60.7230 C.ar    0  <0>0        0.0013
     14  C26        2.2380   30.3700   60.4770 C.ar    0  <0>0        0.0156
     15  C27        1.3730   29.8900   59.5050 C.ar    0  <0>0        0.0586
     16  N2         0.1930   30.5590   59.1930 N.pl3   0  <0>0       -0.3262
     17  H20        0.3030   27.2650   58.1790 H       0  <0>0        0.1520
     18  H25       -0.6020   30.6180   59.9510 H       0  <0>0        0.1474
     19  C6         1.1190   32.1530   57.6600 C.ar    0  <0>0        0.0008
     20  C5         2.2410   31.7670   56.9480 C.ar    0  <0>0        0.0008
     21  C4         3.2660   32.6670   56.7310 C.ar    0  <0>0        0.0375
     22  C3         3.1700   33.9590   57.2260 C.ar    0  <0>0        0.1490
     23  C8         2.0440   34.3450   57.9400 C.ar    0  <0>0        0.0913
     24  C7         1.0190   33.4420   58.1500 C.ar    0  <0>0        0.0121
     25 Cl          1.9210   35.9610   58.5610 Cl      0  <0>0       -0.0791
     26  O1         4.1780   34.8460   57.0130 O.3     0  <0>0       -0.4746
     27  C2         5.3660   34.6790   57.7910 C.3     0  <0>0        0.2056
     28  C1         5.5580   35.8980   58.6960 C.3     0  <0>0        0.0512
     29  C16       -0.8820   27.6380   53.3970 C.ar    0  <0>0       -0.0217
     30  C21       -1.4890   28.1130   52.2510 C.ar    0  <0>0       -0.0043
     31  C20       -1.5160   27.3340   51.1090 C.ar    0  <0>0       -0.0003
     32  C19       -0.9370   26.0790   51.1160 C.ar    0  <0>0       -0.0000
     33  C18       -0.3290   25.6040   52.2620 C.ar    0  <0>0       -0.0003
     34  C17       -0.2970   26.3860   53.4020 C.ar    0  <0>0       -0.0043
@<TRIPOS>BOND
     1    31    32   ar
     2    31    30   ar
     3    32    33   ar
     4    30    29   ar
     5    33    34   ar
     6    29    34   ar
     7    29     5    1
     8     6     5    1
     9     6     7    1
    10     5     4    1
    11     8     7    2
    12     7     2    1
    13     4     3    1
    14    21    20   ar
    15    21    22   ar
    16     2     3    2
    17     2     1    1
    18     3     9    1
    19    20    19   ar
    20    26    22    1
    21    26    27    1
    22    22    23   ar
    23    19     1    1
    24    19    24   ar
    25    27    28    1
    26     1    16    1
    27     9    17    1
    28     9    10    1
    29    23    24   ar
    30    23    25    1
    31    10    11   ar
    32    10    15   ar
    33    11    12   ar
    34    16    15    1
    35    16    18    1
    36    15    14   ar
    37    12    13   ar
    38    14    13   ar
