@<TRIPOS>MOLECULE
ZINC39849831_replica-1.pdb
 31 35 0 0 0
SMALL
GASTEIGER

@<TRIPOS>ATOM
      1  N1        -1.0140   29.8880   55.6120 N.ar    0  <0>0       -0.2467
      2  C9        -1.6980   29.0690   56.4310 C.ar    0  <0>0        0.2660
      3  O1        -2.7130   28.5190   56.0440 O.2     0  <0>0       -0.2668
      4  C10       -1.2020   28.8440   57.8050 C.ar    0  <0>0        0.0746
      5  C11       -1.7770   28.0040   58.8560 C.ar    0  <0>0       -0.0136
      6  C12       -1.0920   28.0010   60.0170 C.ar    0  <0>0        0.0049
      7  S1         0.2810   29.0790   59.7310 S.2     0  <0>0       -0.0742
      8  C13       -0.0330   29.5180   58.1500 C.ar    0  <0>0        0.0981
      9  N2         0.6020   30.3370   57.2510 N.ar    0  <0>0       -0.2715
     10  C14        0.1110   30.5040   56.0080 C.ar    0  <0>0        0.3346
     11  O2         0.6970   31.2320   55.2300 O.2     0  <0>0       -0.2462
     12  C22       -1.4350   27.2450   61.2630 C.3     0  <0>0        0.0327
     13  C23       -2.8910   26.7670   61.1510 C.3     0  <0>0        0.0055
     14  C24       -3.0940   26.1170   59.7800 C.3     0  <0>0        0.0050
     15  C25       -3.0490   27.1860   58.6860 C.3     0  <0>0        0.0268
     16  C2        -1.5080   30.1100   54.2510 C.3     0  <0>0        0.1153
     17  C1        -3.0100   30.3970   54.2920 C.3     0  <0>0        0.0297
     18  C3        -1.2530   28.8800   53.4170 C.ar    0  <0>0       -0.0015
     19  C8        -1.8990   28.7210   52.2060 C.ar    0  <0>0       -0.0025
     20  C7        -1.6630   27.5950   51.4390 C.ar    0  <0>0       -0.0003
     21  C6        -0.7880   26.6240   51.8890 C.ar    0  <0>0       -0.0000
     22  C5        -0.1460   26.7810   53.1030 C.ar    0  <0>0       -0.0003
     23  C4        -0.3790   27.9100   53.8670 C.ar    0  <0>0       -0.0025
     24  C15        1.8300   31.0330   57.6450 C.3     0  <0>0        0.1385
     25  C16        1.4770   32.2430   58.4720 C.ar    0  <0>0        0.0111
     26  C21        2.0440   32.4160   59.7210 C.ar    0  <0>0        0.0555
     27  C20        1.7240   33.5310   60.4770 C.ar    0  <0>0        0.0111
     28 Cl          3.1600   31.2400   60.3390 Cl      0  <0>0       -0.0825
     29  C19        0.8310   34.4640   59.9870 C.ar    0  <0>0        0.0008
     30  C18        0.2610   34.2880   58.7390 C.ar    0  <0>0       -0.0002
     31  C17        0.5850   33.1780   57.9810 C.ar    0  <0>0       -0.0016
@<TRIPOS>BOND
     1    20    21   ar
     2    20    19   ar
     3    21    22   ar
     4    19    18   ar
     5    22    23   ar
     6    18    23   ar
     7    18    16    1
     8    16    17    1
     9    16     1    1
    10    11    10    2
    11     1    10   ar
    12     1     2   ar
    13    10     9   ar
    14     3     2    2
    15     2     4   ar
    16     9    24    1
    17     9     8   ar
    18    24    25    1
    19     4     8   ar
    20     4     5   ar
    21    31    25   ar
    22    31    30   ar
    23     8     7   ar
    24    25    26   ar
    25    15     5    1
    26    15    14    1
    27    30    29   ar
    28     5     6   ar
    29    26    28    1
    30    26    27   ar
    31     7     6   ar
    32    14    13    1
    33    29    27   ar
    34     6    12    1
    35    13    12    1
