@<TRIPOS>MOLECULE
ZINC01412360_replica-1.pdb
 29 32 0 0 0
SMALL
GASTEIGER

@<TRIPOS>ATOM
      1  C1        12.2760   33.8430   62.8200 C.2     0  <0>0        0.0053
      2  C2        11.4990   32.6830   62.6520 C.2     0  <0>0        0.0163
      3  C3        10.4640   32.6770   61.7890 C.2     0  <0>0        0.0690
      4  N1        10.1530   33.7960   61.0660 N.pl3   0  <0>0       -0.2409
      5  C4        10.8950   34.9440   61.2090 C.2     0  <0>0        0.1878
      6  C5        11.9800   34.9630   62.1090 C.2     0  <0>0        0.0480
      7  N2        10.3880   35.8650   60.4030 N.2     0  <0>0       -0.3918
      8  C6         9.3450   35.3490   59.7460 C.2     0  <0>0        0.1260
      9  C7         9.1790   34.0610   60.1410 C.3     0  <0>0        0.2081
     10  N3         8.1970   33.1720   59.6880 N.am    0  <0>0       -0.2478
     11  C8         6.8160   33.3030   60.1590 C.3     0  <0>0        0.1225
     12  C9         5.9960   34.0160   59.1150 C.ar    0  <0>0       -0.0023
     13  C14        5.8670   33.4760   57.8490 C.ar    0  <0>0       -0.0027
     14  C13        5.1120   34.1270   56.8920 C.ar    0  <0>0        0.0036
     15  C12        4.4920   35.3250   57.1990 C.ar    0  <0>0        0.0714
     16  C11        4.6250   35.8680   58.4630 C.ar    0  <0>0        0.0036
     17  C10        5.3770   35.2140   59.4210 C.ar    0  <0>0       -0.0027
     18  C15        3.6710   36.0380   56.1550 C.3     0  <0>0        0.4186
     19  F1         2.5530   36.6220   56.7600 F       0  <0>0       -0.1659
     20  F2         4.4480   37.0320   55.5500 F       0  <0>0       -0.1659
     21  F3         3.2510   35.1200   55.1870 F       0  <0>0       -0.1659
     22  C16        8.5240   32.1950   58.8190 C.2     0  <0>0        0.3046
     23  O1         8.2200   31.0440   59.0570 O.2     0  <0>0       -0.2649
     24  C17        8.4970   36.0760   58.7350 C.3     0  <0>0        0.0563
     25  C22        8.8850   35.6310   57.3230 C.3     0  <0>0        0.0325
     26  C21        8.2460   36.5330   56.3050 C.2     0  <0>0       -0.0303
     27  C20        7.7480   37.6970   56.5760 C.2     0  <0>0       -0.0307
     28  C19        7.7330   38.3060   57.9470 C.3     0  <0>0        0.0261
     29  C18        8.7330   37.5870   58.8540 C.3     0  <0>0        0.0118
@<TRIPOS>BOND
     1    21    18    1
     2    20    18    1
     3    18    19    1
     4    18    15    1
     5    26    27    2
     6    26    25    1
     7    27    28    1
     8    14    15   ar
     9    14    13   ar
    10    15    16   ar
    11    25    24    1
    12    13    12   ar
    13    28    29    1
    14    16    17   ar
    15    24    29    1
    16    24     8    1
    17    22    23    2
    18    22    10   am
    19    12    17   ar
    20    12    11    1
    21    10     9    1
    22    10    11    1
    23     8     9    1
    24     8     7    2
    25     9     4    1
    26     7     5    2
    27     4     5    1
    28     4     3    1
    29     5     6    1
    30     3     2    2
    31     6     1    2
    32     2     1    1
