@<TRIPOS>MOLECULE
ZINC00924051_replica-1.pdb
 29 33 0 0 0
SMALL
GASTEIGER

@<TRIPOS>ATOM
      1  C9         6.5400   35.8670   56.6000 C.3     0  <0>0        0.1174
      2  C10        7.1900   34.5690   57.0020 C.2     0  <0>0        0.0304
      3  C11        8.0570   34.4880   58.0460 C.2     0  <0>0       -0.0203
      4  C12        8.5750   33.1450   58.4920 C.3     0  <0>0        0.0267
      5  C13        7.5830   32.0390   58.1140 C.3     0  <0>0        0.0128
      6  C14        7.4010   32.0720   56.5940 C.3     0  <0>0        0.0692
      7  C15        6.8820   33.4350   56.2250 C.2     0  <0>0        0.1707
      8  O2         6.1970   33.5590   55.2270 O.2     0  <0>0       -0.2916
      9  C16        8.5060   35.6560   58.7130 C.ar    0  <0>0        0.0105
     10  C17        9.5170   35.6370   59.7690 C.ar    0  <0>0        0.0186
     11  C18       10.3330   34.5350   60.0520 C.ar    0  <0>0        0.0031
     12  C19       11.1850   34.5970   61.1210 C.ar    0  <0>0        0.0207
     13  C20       11.2370   35.7410   61.9100 C.ar    0  <0>0        0.0988
     14  N1        10.5330   36.8020   61.6010 N.ar    0  <0>0       -0.2438
     15  C21        9.7530   36.8220   60.5160 C.ar    0  <0>0        0.0814
     16  C22        9.1630   38.0350   60.1040 C.ar    0  <0>0        0.0204
     17  C23        8.3410   38.0690   59.0260 C.ar    0  <0>0        0.0158
     18  C24        8.0030   36.9060   58.3230 C.ar    0  <0>0        0.0448
     19  N2         7.1640   37.0230   57.2290 N.pl3   0  <0>0       -0.3272
     20  H22        6.9980   37.9210   56.8640 H       0  <0>0        0.1474
     21  C6         5.0760   35.8310   56.9800 C.ar    0  <0>0       -0.0001
     22  C5         4.1100   36.1420   56.0410 C.ar    0  <0>0        0.0008
     23  C4         2.7730   36.1040   56.3840 C.ar    0  <0>0        0.0366
     24  C3         2.3980   35.7540   57.6730 C.ar    0  <0>0        0.1385
     25  C8         3.3690   35.4420   58.6140 C.ar    0  <0>0        0.0366
     26  C7         4.7050   35.4810   58.2660 C.ar    0  <0>0        0.0008
     27  O1         1.0830   35.7150   58.0140 O.3     0  <0>0       -0.4755
     28  C2         0.6480   34.6000   58.7940 C.3     0  <0>0        0.2055
     29  C1         0.2120   33.4660   57.8640 C.3     0  <0>0        0.0512
@<TRIPOS>BOND
     1     8     7    2
     2    22    23   ar
     3    22    21   ar
     4     7     6    1
     5     7     2    1
     6    23    24   ar
     7     6     5    1
     8     1    21    1
     9     1     2    1
    10     1    19    1
    11    20    19    1
    12    21    26   ar
    13     2     3    2
    14    19    18    1
    15    24    27    1
    16    24    25   ar
    17    29    28    1
    18    27    28    1
    19     3     4    1
    20     3     9    1
    21     5     4    1
    22    26    25   ar
    23    18     9   ar
    24    18    17   ar
    25     9    10   ar
    26    17    16   ar
    27    10    11   ar
    28    10    15   ar
    29    11    12   ar
    30    16    15   ar
    31    15    14   ar
    32    12    13   ar
    33    14    13   ar
