@<TRIPOS>MOLECULE
ZINC60726098_replica-1.pdb
 21 23 0 0 0
SMALL
GASTEIGER

@<TRIPOS>ATOM
      1  C1        -1.7160   27.3830   50.8320 C.ar    0  <0>0        0.0029
      2  C2        -0.9250   26.5900   51.6410 C.ar    0  <0>0       -0.0028
      3  C3        -0.6300   26.9840   52.9360 C.ar    0  <0>0       -0.0043
      4  C4        -1.1300   28.1820   53.4170 C.ar    0  <0>0        0.0984
      5  C5        -1.9290   28.9820   52.6010 C.ar    0  <0>0        0.1481
      6  C6        -2.2190   28.5790   51.3090 C.ar    0  <0>0        0.0379
      7  N1        -0.8400   28.6100   54.7200 N.pl3   0  <0>0       -0.1875
      8  C7        -0.2580   27.6510   55.6690 C.3     0  <0>0        0.1163
      9  C8         0.8510   26.8840   54.9390 C.3     0  <0>0        0.0281
     10  C9         0.2300   26.0900   53.7910 C.3     0  <0>0        0.0296
     11  S1        -1.1470   30.1700   55.1820 S.O2    0  <0>0        0.0824
     12  O2        -0.4520   31.0090   54.2700 O.2     0  <0>0       -0.1492
     13  O3        -2.5500   30.2640   55.3870 O.2     0  <0>0       -0.1492
     14  C10       -0.3910   30.4050   56.7570 C.ar    0  <0>0        0.1553
     15  S2         1.1030   31.2950   57.1660 S.2     0  <0>0       -0.0602
     16  C13        1.0890   31.0120   58.9280 C.ar    0  <0>0        0.0651
     17  C12       -0.0310   30.2630   59.0840 C.ar    0  <0>0        0.0152
     18 Br          2.3220   31.5970   60.2380 Br      0  <0>0       -0.0419
     19  C11       -0.7890   29.9530   57.9700 C.ar    0  <0>0        0.0279
     20  O1        -2.4240   30.1580   53.0750 O.3     0  <0>0       -0.5042
     21  H4        -3.1160   30.5450   52.5220 H       0  <0>0        0.2922
@<TRIPOS>BOND
     1     1     6   ar
     2     1     2   ar
     3     6     5   ar
     4     2     3   ar
     5    21    20    1
     6     5    20    1
     7     5     4   ar
     8     3     4   ar
     9     3    10    1
    10     4     7    1
    11    10     9    1
    12    12    11    2
    13     7    11    1
    14     7     8    1
    15     9     8    1
    16    11    13    2
    17    11    14    1
    18    14    15   ar
    19    14    19   ar
    20    15    16   ar
    21    19    17   ar
    22    16    17   ar
    23    16    18    1
