@<TRIPOS>MOLECULE
ZINC62771813_replica-1.pdb
 21 22 0 0 0
SMALL
GASTEIGER

@<TRIPOS>ATOM
      1  C1         8.6550   32.2070   60.3800 C.3     0  <0>0        0.0324
      2  C2         9.6530   33.2290   60.8630 C.ar    0  <0>0       -0.0057
      3  C3        10.5720   32.8910   61.8370 C.ar    0  <0>0        0.0339
      4  C4        11.4890   33.8320   62.2810 C.ar    0  <0>0        0.1381
      5  C5        11.4850   35.1120   61.7480 C.ar    0  <0>0        0.0381
      6  C6        10.5660   35.4520   60.7740 C.ar    0  <0>0        0.0171
      7  C7         9.6510   34.5090   60.3240 C.ar    0  <0>0        0.0408
      8  N1         8.7240   34.8500   59.3330 N.pl3   0  <0>0       -0.3338
      9  H8         7.7780   34.6950   59.4800 H       0  <0>0        0.1468
     10  C8         9.1830   35.4420   58.0740 C.3     0  <0>0        0.0766
     11  C9         8.7620   34.5450   56.9070 C.3     0  <0>0        0.0216
     12  C10        8.5570   36.8280   57.9030 C.3     0  <0>0        0.0839
     13  C11        7.3050   36.9190   58.7360 C.ar    0  <0>0        0.1247
     14  O1         6.2220   36.1350   58.6170 O.2     0  <0>0       -0.4546
     15  C14        5.3020   36.4990   59.5250 C.ar    0  <0>0        0.1791
     16  C13        5.7900   37.5350   60.2320 C.ar    0  <0>0        0.0434
     17  C12        7.0810   37.8050   59.7230 C.ar    0  <0>0        0.0362
     18  O2        12.3940   33.4980   63.2410 O.3     0  <0>0       -0.4792
     19  C15       13.4870   32.6680   62.8410 C.3     0  <0>0        0.1661
     20  C16       14.7800   33.4840   62.8600 C.3     0  <0>0        0.0472
     21  C17       13.6120   31.4900   63.8100 C.3     0  <0>0        0.0472
@<TRIPOS>BOND
     1    11    10    1
     2    12    10    1
     3    12    13    1
     4    10     8    1
     5    14    13   ar
     6    14    15   ar
     7    13    17   ar
     8     8     9    1
     9     8     7    1
    10    15    16   ar
    11    17    16   ar
    12     7     6   ar
    13     7     2   ar
    14     1     2    1
    15     6     5   ar
    16     2     3   ar
    17     5     4   ar
    18     3     4   ar
    19     4    18    1
    20    19    20    1
    21    19    18    1
    22    19    21    1
