@<TRIPOS>MOLECULE
ZINC21258957_replica-1.pdb
 37 41 0 0 0
SMALL
GASTEIGER

@<TRIPOS>ATOM
      1  C11        2.6310   33.9640   59.7620 C.3     0  <0>0        0.1186
      2  C12        1.9370   33.0230   58.8060 C.2     0  <0>0        0.0436
      3  C13        1.8810   31.6860   58.9170 C.2     0  <0>0        0.0262
      4  C14        1.1630   30.8570   57.8630 C.3     0  <0>0        0.0459
      5  C15       -0.0230   31.6400   57.3060 C.3     0  <0>0        0.0386
      6  C16        0.5190   32.9320   56.6830 C.3     0  <0>0        0.0737
      7  C17        1.2970   33.6770   57.7260 C.2     0  <0>0        0.1722
      8  O2         1.3830   34.8860   57.6400 O.2     0  <0>0       -0.2916
      9  N1         2.4320   30.9660   59.9260 N.pl3   0  <0>0       -0.3150
     10  C25        3.7240   31.1400   60.4110 C.ar    0  <0>0        0.0614
     11  C26        4.6770   30.1390   60.3500 C.ar    0  <0>0        0.0158
     12  C27        5.9100   30.3380   60.9480 C.ar    0  <0>0        0.0014
     13  C28        6.1860   31.5280   61.5970 C.ar    0  <0>0        0.0013
     14  C29        5.2420   32.5380   61.6400 C.ar    0  <0>0        0.0156
     15  C30        4.0120   32.3480   61.0290 C.ar    0  <0>0        0.0586
     16  N2         3.0470   33.3520   61.0070 N.pl3   0  <0>0       -0.3262
     17  H27        1.8460   30.1790   60.4230 H       0  <0>0        0.1520
     18  H32        2.5990   33.6800   61.9570 H       0  <0>0        0.1474
     19  C8         3.8500   34.5280   59.0760 C.ar    0  <0>0       -0.0001
     20  C7         4.5380   33.7630   58.1530 C.ar    0  <0>0        0.0008
     21  C6         5.6540   34.2770   57.5230 C.ar    0  <0>0        0.0366
     22  C5         6.0850   35.5630   57.8180 C.ar    0  <0>0        0.1384
     23  C10        5.3940   36.3280   58.7460 C.ar    0  <0>0        0.0366
     24  C9         4.2740   35.8100   59.3690 C.ar    0  <0>0        0.0008
     25  O1         7.1830   36.0710   57.2000 O.3     0  <0>0       -0.4792
     26  C3         7.9930   36.9760   57.9550 C.3     0  <0>0        0.1660
     27  C4         9.1350   36.2050   58.6190 C.3     0  <0>0        0.0472
     28  C2         8.5710   38.0420   57.0230 C.3     0  <0>0        0.0435
     29  C1         7.4650   38.5750   56.1090 C.3     0  <0>0        0.0038
     30  C18       -0.7270   30.8230   56.2550 C.ar    0  <0>0        0.0123
     31  C23       -1.5170   29.7450   56.6270 C.ar    0  <0>0        0.1347
     32  C22       -2.1590   28.9900   55.6540 C.ar    0  <0>0        0.0366
     33  C21       -2.0140   29.3170   54.3210 C.ar    0  <0>0        0.0031
     34  C20       -1.2310   30.3950   53.9530 C.ar    0  <0>0       -0.0001
     35  C19       -0.5900   31.1490   54.9190 C.ar    0  <0>0       -0.0013
     36  O3        -1.6570   29.4240   57.9390 O.3     0  <0>0       -0.4717
     37  C24       -1.9710   28.0650   58.2450 C.3     0  <0>0        0.2525
@<TRIPOS>BOND
     1    34    33   ar
     2    34    35   ar
     3    33    32   ar
     4    35    30   ar
     5    32    31   ar
     6    29    28    1
     7    30    31   ar
     8    30     5    1
     9    31    36    1
    10     6     5    1
    11     6     7    1
    12    28    26    1
    13    25    22    1
    14    25    26    1
    15     5     4    1
    16    21    22   ar
    17    21    20   ar
    18     8     7    2
    19     7     2    1
    20    22    23   ar
    21     4     3    1
    22    36    37    1
    23    26    27    1
    24    20    19   ar
    25    23    24   ar
    26     2     3    2
    27     2     1    1
    28     3     9    1
    29    19    24   ar
    30    19     1    1
    31     1    16    1
    32     9    10    1
    33     9    17    1
    34    11    10   ar
    35    11    12   ar
    36    10    15   ar
    37    12    13   ar
    38    16    15    1
    39    16    18    1
    40    15    14   ar
    41    13    14   ar
