@<TRIPOS>MOLECULE
ZINC37856767_replica-1.pdb
 22 23 0 0 0
SMALL
GASTEIGER

@<TRIPOS>ATOM
      1  N1        -1.5000   30.0230   55.1750 N.pl3   0  <0>0       -0.3304
      2  H13       -2.0690   30.5280   54.5740 H       0  <0>0        0.1469
      3  C8        -0.9430   28.8120   54.7570 C.ar    0  <0>0        0.0444
      4  C7        -0.2560   28.0130   55.6620 C.ar    0  <0>0        0.0143
      5  C6         0.2930   26.8160   55.2470 C.ar    0  <0>0        0.0009
      6  C5         0.1600   26.4130   53.9310 C.ar    0  <0>0       -0.0042
      7  C4        -0.5230   27.2060   53.0270 C.ar    0  <0>0       -0.0213
      8  C9        -1.0690   28.4070   53.4350 C.ar    0  <0>0        0.0100
      9  C2        -0.6650   26.7630   51.5940 C.3     0  <0>0        0.0224
     10  C1        -0.9220   25.2550   51.5490 C.3     0  <0>0        0.0047
     11  C3        -1.8390   27.5000   50.9460 C.3     0  <0>0        0.0047
     12  C10       -1.2220   30.5320   56.5210 C.3     0  <0>0        0.1213
     13  C11       -0.0110   31.4660   56.4730 C.3     0  <0>0        0.1521
     14  C12        0.2460   32.0240   57.8490 C.ar    0  <0>0        0.0061
     15  C17        0.1840   33.3880   58.0640 C.ar    0  <0>0        0.0004
     16  C16        0.4140   33.9000   59.3270 C.ar    0  <0>0        0.0294
     17  C15        0.7190   33.0480   60.3740 C.ar    0  <0>0        0.1401
     18  C14        0.7870   31.6820   60.1570 C.ar    0  <0>0        0.0294
     19  F1         0.9490   33.5490   61.6080 F       0  <0>0       -0.2042
     20  C13        0.5500   31.1710   58.8940 C.ar    0  <0>0        0.0004
     21  O1        -0.2740   32.5390   55.5650 O.3     0  <0>0       -0.3783
     22  H20        0.4750   33.1370   55.4380 H       0  <0>0        0.2109
@<TRIPOS>BOND
     1    11     9    1
     2    10     9    1
     3     9     7    1
     4     7     8   ar
     5     7     6   ar
     6     8     3   ar
     7     6     5   ar
     8     2     1    1
     9     3     1    1
    10     3     4   ar
    11     1    12    1
    12     5     4   ar
    13    22    21    1
    14    21    13    1
    15    13    12    1
    16    13    14    1
    17    14    15   ar
    18    14    20   ar
    19    15    16   ar
    20    20    18   ar
    21    16    17   ar
    22    18    17   ar
    23    17    19    1
