@<TRIPOS>MOLECULE
ZINC06490326_replica-1.pdb
 30 34 0 0 0
SMALL
GASTEIGER

@<TRIPOS>ATOM
      1  C7         8.6960   35.1730   58.8350 C.3     0  <0>0        0.0636
      2  C8         7.4780   34.5010   59.4700 C.3     0  <0>0        0.0081
      3  C9         6.3920   34.7690   58.4140 C.3     0  <0>0        0.0073
      4  C10        4.9540   34.6220   58.8760 C.3     0  <0>0        0.0050
      5  C11        4.5260   33.1890   58.5280 C.3     0  <0>0        0.0254
      6  C12        3.0510   33.0070   58.6610 C.2     0  <0>0       -0.0345
      7  C13        2.2050   33.9730   58.4650 C.2     0  <0>0       -0.0467
      8  C14        0.7200   33.6610   58.5070 C.3     0  <0>0        0.0509
      9  C15        0.1020   34.1280   57.1840 C.3     0  <0>0        0.1145
     10  C16        0.4210   35.6020   56.9460 C.3     0  <0>0        0.0299
     11  C17        1.9290   35.8270   56.8620 C.3     0  <0>0        0.0062
     12  C18        2.6150   35.3790   58.1540 C.3     0  <0>0        0.0150
     13  C19        4.0990   35.6250   58.1130 C.3     0  <0>0        0.0038
     14  C20        4.6680   35.8650   56.7190 C.3     0  <0>0        0.0007
     15  C21        5.9730   36.6760   56.8330 C.3     0  <0>0        0.0069
     16  C22        6.7390   36.2290   58.0540 C.3     0  <0>0        0.0515
     17  C23        8.2420   36.1320   57.8850 C.2     0  <0>0        0.1498
     18  O1         8.9070   36.7550   57.0910 O.2     0  <0>0       -0.2961
     19  C24        6.4970   37.1860   59.2240 C.3     0  <0>0        0.0073
     20  C25        2.0730   36.2660   59.2900 C.3     0  <0>0        0.0040
     21  C6         9.9890   34.8900   59.1170 C.3     0  <0>0        0.0549
     22  C5        10.5560   35.2610   60.4220 C.ar    0  <0>0        0.0805
     23  C4        10.2970   36.4520   61.1460 C.ar    0  <0>0        0.0367
     24  C3        11.0330   36.3550   62.2770 C.ar    0  <0>0        0.0963
     25  N1        11.6930   35.1700   62.2260 N.ar    0  <0>0       -0.2498
     26  N2        11.4090   34.5500   61.1380 N.ar    0  <0>0       -0.1736
     27  C2        12.6040   34.6740   63.2600 C.3     0  <0>0        0.1276
     28  C1        13.2730   33.3860   62.7750 C.3     0  <0>0        0.0284
     29  O2         0.6260   33.3430   56.1120 O.3     0  <0>0       -0.3841
     30  H34        1.4190   32.8400   56.3440 H       0  <0>0        0.2103
@<TRIPOS>BOND
     1    29    30    1
     2    29     9    1
     3    14    15    1
     4    14    13    1
     5    15    16    1
     6    11    10    1
     7    11    12    1
     8    10     9    1
     9    18    17    2
    10     9     8    1
    11    17    16    1
    12    17     1    1
    13    16     3    1
    14    16    19    1
    15    13    12    1
    16    13     4    1
    17    12     7    1
    18    12    20    1
    19     3     4    1
    20     3     2    1
    21     7     8    1
    22     7     6    2
    23     5     6    1
    24     5     4    1
    25     1    21    1
    26     1     2    1
    27    21    22    1
    28    22    26   ar
    29    22    23   ar
    30    26    25   ar
    31    23    24   ar
    32    25    24   ar
    33    25    27    1
    34    28    27    1
