@<TRIPOS>MOLECULE
ZINC37119246_replica-1.pdb
 19 19 0 0 0
SMALL
GASTEIGER

@<TRIPOS>ATOM
      1  C7        -0.2630   27.2770   53.7460 C.ar    0  <0>0        0.0531
      2  C8        -0.0670   26.0130   53.2070 C.ar    0  <0>0        0.0441
      3  C9        -0.6070   25.6940   51.9750 C.ar    0  <0>0        0.1414
      4  C10       -1.3480   26.6330   51.2690 C.ar    0  <0>0        0.0299
      5  C11       -1.5530   27.8910   51.7880 C.ar    0  <0>0        0.0100
      6  C12       -1.0180   28.2260   53.0370 C.ar    0  <0>0        0.0888
      7  F1        -0.4130   24.4630   51.4540 F       0  <0>0       -0.2041
      8  N1         0.2780   27.6000   54.9830 N.pl3   0  <0>0       -0.3338
      9  H14        1.1400   28.0400   55.0350 H       0  <0>0        0.1468
     10  C5        -0.4550   27.2760   56.2100 C.3     0  <0>0        0.0690
     11  C6         0.1150   25.9950   56.8220 C.3     0  <0>0        0.0212
     12  C3        -0.3100   28.4260   57.2100 C.3     0  <0>0        0.0179
     13  C4         0.6770   28.0260   58.3070 C.3     0  <0>0        0.0017
     14  C2        -1.6720   28.7330   57.8340 C.3     0  <0>0        0.0016
     15  C1        -2.7660   28.5690   56.7770 C.3     0  <0>0        0.0001
     16  C13       -1.2380   29.5690   53.6000 C.2     0  <0>0        0.3425
     17  O1        -2.3430   30.0720   53.5550 O.2     0  <0>0       -0.2448
     18  O2        -0.2130   30.2390   54.1640 O.3     0  <0>0       -0.4413
     19  C14       -0.5470   31.3510   54.9960 C.3     0  <0>0        0.2560
@<TRIPOS>BOND
     1     4     5   ar
     2     4     3   ar
     3     7     3    1
     4     5     6   ar
     5     3     2   ar
     6     6    16    1
     7     6     1   ar
     8     2     1   ar
     9    17    16    2
    10    16    18    1
    11     1     8    1
    12    18    19    1
    13     8     9    1
    14     8    10    1
    15    10    11    1
    16    10    12    1
    17    15    14    1
    18    12    14    1
    19    12    13    1
