@<TRIPOS>MOLECULE
ZINC62788223_replica-1.pdb
 22 23 0 0 0
SMALL
GASTEIGER

@<TRIPOS>ATOM
      1  C9         8.0480   36.0670   58.8250 C.ar    0  <0>0        0.0506
      2  C10        7.6950   36.2670   57.4980 C.ar    0  <0>0        0.0260
      3  C11        7.8680   37.5070   56.9150 C.ar    0  <0>0        0.0589
      4  C12        8.3960   38.5600   57.6480 C.ar    0  <0>0        0.0115
      5  C13        8.7530   38.3800   58.9660 C.ar    0  <0>0        0.0038
      6  C14        8.5780   37.1310   59.5720 C.ar    0  <0>0        0.0330
      7 Cl          7.4220   37.7510   55.2550 Cl      0  <0>0       -0.0822
      8  N1         7.8750   34.8200   59.4140 N.pl3   0  <0>0       -0.3048
      9  C2         8.8740   33.7680   59.2080 C.3     0  <0>0        0.0732
     10  C1         9.0150   32.9420   60.4870 C.3     0  <0>0        0.0214
     11  C3         8.4270   32.8590   58.0610 C.3     0  <0>0        0.0214
     12  C4         6.6940   34.5570   60.2410 C.3     0  <0>0        0.1242
     13  C5         5.4480   34.7610   59.4170 C.ar    0  <0>0        0.0272
     14  S1         4.7270   33.6870   58.1860 S.2     0  <0>0       -0.0891
     15  C8         3.3230   34.7040   57.7570 C.ar    0  <0>0        0.0352
     16  C7         3.4990   35.7800   58.5640 C.ar    0  <0>0        0.0072
     17  C6         4.5880   35.8090   59.4150 C.ar    0  <0>0        0.0044
     18  C15        8.9520   36.9340   60.9820 C.2     0  <0>0        0.0792
     19  S2        10.4880   36.2930   61.3780 S.2     0  <0>0       -0.0351
     20  N2         8.0840   37.2600   61.9620 N.am    0  <0>0       -0.3517
     21  H16        7.2140   37.6240   61.7370 H       0  <0>0        0.1428
     22  H17        8.3310   37.1300   62.8900 H       0  <0>0        0.1428
@<TRIPOS>BOND
     1     7     3    1
     2     3     2   ar
     3     3     4   ar
     4     2     1   ar
     5     4     5   ar
     6    15    14   ar
     7    15    16   ar
     8    11     9    1
     9    14    13   ar
    10    16    17   ar
    11     1     8    1
    12     1     6   ar
    13     5     6   ar
    14     9     8    1
    15     9    10    1
    16     8    12    1
    17    17    13   ar
    18    13    12    1
    19     6    18    1
    20    18    19    2
    21    18    20    1
    22    21    20    1
    23    20    22    1
