@<TRIPOS>MOLECULE
ZINC49534475_replica-1.pdb
 20 22 0 0 0
SMALL
GASTEIGER

@<TRIPOS>ATOM
      1  N2         7.8980   35.3750   58.2440 N.pl3   0  <0>0       -0.2708
      2  C6         6.8690   34.7220   58.8920 C.3     0  <0>0        0.1500
      3  C7         6.8040   33.6220   59.7370 C.2     0  <0>0        0.0010
      4  C8         5.5870   33.2070   60.2310 C.2     0  <0>0        0.0043
      5  C9         4.4210   33.8830   59.8900 C.2     0  <0>0        0.0366
      6  C10        4.4660   34.9750   59.0540 C.2     0  <0>0        0.0363
      7  C11        5.6930   35.4090   58.5440 C.2     0  <0>0        0.1329
      8  N3         6.0580   36.4240   57.7190 N.2     0  <0>0       -0.3925
      9  C12        7.3480   36.4070   57.5490 C.2     0  <0>0        0.1753
     10 Br          2.7610   33.2970   60.5790 Br      0  <0>0       -0.0489
     11  C5         9.3200   35.0260   58.3000 C.3     0  <0>0        0.1593
     12  C4         9.8850   35.4340   59.6360 C.2     0  <0>0        0.1540
     13  S1         9.5630   36.8240   60.5280 S.3     0  <0>0       -0.0778
     14  C3        10.6310   36.4790   61.9160 C.3     0  <0>0        0.1185
     15  C2        11.1490   35.2810   61.5410 C.2     0  <0>0        0.0986
     16  C1        12.1400   34.5460   62.4060 C.3     0  <0>0        0.0624
     17  N1        10.7500   34.7940   60.3830 N.2     0  <0>0       -0.4060
     18  C13        8.1190   37.3860   56.7010 C.3     0  <0>0        0.1462
     19  C14        7.2820   37.7740   55.4810 C.3     0  <0>0        0.0266
     20 Cl          8.4890   38.8600   57.6700 Cl      0  <0>0       -0.1059
@<TRIPOS>BOND
     1    19    18    1
     2    18     9    1
     3    18    20    1
     4     9     8    2
     5     9     1    1
     6     8     7    2
     7     1    11    1
     8     1     2    1
     9    11    12    1
    10     7     2    1
    11     7     6    1
    12     2     3    1
    13     6     5    2
    14    12    17    2
    15    12    13    1
    16     3     4    2
    17     5     4    1
    18     5    10    1
    19    17    15    2
    20    13    14    1
    21    15    14    1
    22    15    16    1
