@<TRIPOS>MOLECULE
ZINC49452804_replica-1.pdb
 21 23 0 0 0
SMALL
GASTEIGER

@<TRIPOS>ATOM
      1  C8        -0.4350   29.9130   56.9000 C.2     0  <0>0        0.1626
      2  C9        -0.0250   30.1130   55.5670 C.2     0  <0>0        0.1336
      3  N1         0.5630   31.2590   55.2390 N.2     0  <0>0       -0.1352
      4  N2         0.7540   32.1700   56.1280 N.2     0  <0>0       -0.0747
      5  C10        0.3770   32.0020   57.3900 C.1     0  <0>0        0.1455
      6  N3        -0.2210   30.8850   57.7830 N.2     0  <0>0       -0.3408
      7  S1         0.6670   33.2870   58.5610 S.2     0  <0>0        0.0457
      8  C6        -1.0950   28.6500   57.3070 C.ar    0  <0>0        0.0318
      9  C5        -2.4850   28.5510   57.2940 C.ar    0  <0>0        0.0026
     10  C4        -3.0940   27.3720   57.6750 C.ar    0  <0>0       -0.0002
     11  C3        -2.3280   26.2910   58.0680 C.ar    0  <0>0       -0.0043
     12  C2        -0.9470   26.3820   58.0830 C.ar    0  <0>0       -0.0218
     13  C1        -0.1190   25.2000   58.5130 C.3     0  <0>0        0.0310
     14  C7        -0.3270   27.5570   57.7100 C.ar    0  <0>0       -0.0016
     15  C11       -0.2470   29.0630   54.5440 C.ar    0  <0>0        0.0180
     16  C16       -1.3010   29.1780   53.6400 C.ar    0  <0>0       -0.0203
     17  C15       -1.4980   28.1990   52.6860 C.ar    0  <0>0       -0.0042
     18  C17       -2.2190   30.3710   53.6980 C.3     0  <0>0        0.0311
     19  C14       -0.6600   27.1000   52.6360 C.ar    0  <0>0       -0.0003
     20  C13        0.3840   26.9780   53.5350 C.ar    0  <0>0        0.0000
     21  C12        0.5960   27.9530   54.4890 C.ar    0  <0>0        0.0013
@<TRIPOS>BOND
     1    19    17   ar
     2    19    20   ar
     3    17    16   ar
     4    20    21   ar
     5    16    18    1
     6    16    15   ar
     7    21    15   ar
     8    15     2    1
     9     3     2    2
    10     3     4    1
    11     2     1    1
    12     4     5    2
    13     1     8    1
    14     1     6    2
    15     9     8   ar
    16     9    10   ar
    17     8    14   ar
    18     5     6    2
    19     5     7    2
    20    10    11   ar
    21    14    12   ar
    22    11    12   ar
    23    12    13    1
