@<TRIPOS>MOLECULE
ZINC16855593_replica-1.pdb
 23 23 0 0 0
SMALL
GASTEIGER

@<TRIPOS>ATOM
      1  C6         7.1840   36.0230   58.4910 C.3     0  <0>0        0.1354
      2  C7         6.8450   34.7670   58.0780 C.2     0  <0>0        0.0981
      3  N1         5.6490   34.2660   58.3770 N.2     0  <0>0       -0.3889
      4  C8         4.7680   34.9590   59.0720 C.2     0  <0>0        0.2122
      5  N2         5.0510   36.2170   59.5100 N.am    0  <0>0       -0.2541
      6  H2         4.3920   36.7150   60.0200 H       0  <0>0        0.1577
      7  C9         6.2520   36.7700   59.2330 C.2     0  <0>0        0.2347
      8  O1         6.5210   37.8950   59.6190 O.2     0  <0>0       -0.2743
      9  C15        7.8270   33.9470   57.2810 C.3     0  <0>0        0.0621
     10  C5         8.5350   36.6000   58.1600 C.3     0  <0>0        0.1183
     11  C4         9.1980   37.1150   59.4380 C.3     0  <0>0        0.0122
     12  C3        10.0050   35.9870   60.0850 C.3     0  <0>0        0.0006
     13  C2        10.4590   36.4200   61.4810 C.3     0  <0>0        0.0000
     14  C1        11.5010   35.4320   62.0090 C.3     0  <0>0        0.0000
     15  C16        8.3710   37.7380   57.1860 C.2     0  <0>0        0.3652
     16  O2         8.7760   38.8390   57.4690 O.co2   0  <0>0       -0.2456
     17  O3         7.7730   37.5260   56.0020 O.co2   0  <0>0       -0.2456
     18  S1         3.1960   34.2490   59.4320 S.3     0  <0>0       -0.0670
     19  C10        2.5080   34.1420   57.7620 C.3     0  <0>0        0.0659
     20  C11        2.5200   35.5280   57.1150 C.3     0  <0>0        0.0121
     21  C12        3.1590   35.4380   55.7280 C.3     0  <0>0        0.0009
     22  C13        4.3860   36.3510   55.6700 C.3     0  <0>0        0.0000
     23  C14        3.5860   33.9930   55.4570 C.3     0  <0>0        0.0000
@<TRIPOS>BOND
     1    23    21    1
     2    22    21    1
     3    21    20    1
     4    17    15   ar
     5    20    19    1
     6    15    16   ar
     7    15    10    1
     8     9     2    1
     9    19    18    1
    10     2     3    2
    11     2     1    1
    12    10     1    1
    13    10    11    1
    14     3     4    2
    15     1     7    1
    16     4    18    1
    17     4     5    1
    18     7     5   am
    19     7     8    2
    20    11    12    1
    21     5     6    1
    22    12    13    1
    23    13    14    1
