@<TRIPOS>MOLECULE
ZINC64687161_replica-1.pdb
 24 24 0 0 0
SMALL
GASTEIGER

@<TRIPOS>ATOM
      1  C6         0.1840   30.8750   55.1210 C.2     0  <0>0        0.3353
      2  O1        -0.5950   31.5220   54.4610 O.2     0  <0>0       -0.2483
      3  C5         0.8800   31.5080   56.2970 C.3     0  <0>0        0.1739
      4  C4        -0.1160   31.6880   57.4440 C.3     0  <0>0        0.0312
      5  C2         0.4570   31.0730   58.7210 C.3     0  <0>0        0.0022
      6  C1         1.3610   29.8920   58.3580 C.3     0  <0>0        0.0001
      7  C3         1.2720   32.1270   59.4740 C.3     0  <0>0        0.0001
      8  N1         1.4150   32.8150   55.9050 N.am    0  <0>0       -0.2624
      9  C15        2.7110   33.1070   56.1280 C.2     0  <0>0        0.4021
     10  O3         3.4370   32.2870   56.6560 O.2     0  <0>0       -0.2264
     11  H18        0.8360   33.4680   55.4840 H       0  <0>0        0.1532
     12  O4         3.2020   34.3080   55.7680 O.3     0  <0>0       -0.4306
     13  C16        2.7560   35.4420   56.5130 C.3     0  <0>0        0.2573
     14  O2         0.4270   29.5940   54.8060 O.3     0  <0>0       -0.4465
     15  C7        -0.6720   28.6840   54.8940 C.3     0  <0>0        0.1935
     16  C8        -0.3610   27.6100   55.9380 C.3     0  <0>0        0.0525
     17  C9        -0.8940   28.0340   53.5530 C.ar    0  <0>0        0.0470
     18  C14       -1.6480   28.6790   52.5870 C.ar    0  <0>0        0.1396
     19  C13       -1.8490   28.0840   51.3530 C.ar    0  <0>0        0.0317
     20  F1        -2.1840   29.8920   52.8480 F       0  <0>0       -0.2044
     21  C12       -1.3050   26.8420   51.0890 C.ar    0  <0>0        0.0319
     22  C11       -0.5550   26.1940   52.0570 C.ar    0  <0>0        0.1401
     23  C10       -0.3500   26.7900   53.2890 C.ar    0  <0>0        0.0311
     24  F2        -0.0230   24.9790   51.7970 F       0  <0>0       -0.2042
@<TRIPOS>BOND
     1    21    19   ar
     2    21    22   ar
     3    19    18   ar
     4    24    22    1
     5    22    23   ar
     6    18    20    1
     7    18    17   ar
     8    23    17   ar
     9    17    15    1
    10     2     1    2
    11    14    15    1
    12    14     1    1
    13    15    16    1
    14     1     3    1
    15    11     8    1
    16    12     9    1
    17    12    13    1
    18     8     9   am
    19     8     3    1
    20     9    10    2
    21     3     4    1
    22     4     5    1
    23     6     5    1
    24     5     7    1
