@<TRIPOS>MOLECULE
ZINC04041982_replica-1.pdb
 24 27 0 0 0
SMALL
GASTEIGER

@<TRIPOS>ATOM
      1  C1         7.0600   37.5800   59.5140 C.3     0  <0>0        0.0000
      2  C2         6.6270   36.2670   58.8590 C.3     0  <0>0        0.0003
      3  C3         6.6820   35.1530   59.9050 C.3     0  <0>0        0.0050
      4  C4         8.0980   35.1270   60.4940 C.3     0  <0>0        0.0562
      5  C5         9.1210   34.8590   59.3900 C.3     0  <0>0        0.1872
      6  C6         9.0250   35.9350   58.3010 C.3     0  <0>0        0.0562
      7  C7         7.6080   35.9290   57.7350 C.3     0  <0>0        0.0048
      8  C8         7.4320   36.9390   56.6090 C.3     0  <0>0        0.0002
      9  C9         6.0900   36.6680   55.9300 C.3     0  <0>0        0.0000
     10  C10        5.1360   35.9280   56.8690 C.3     0  <0>0        0.0004
     11  C11        5.2300   36.4740   58.2850 C.3     0  <0>0        0.0000
     12  C12        4.2460   35.7140   59.1860 C.3     0  <0>0        0.0004
     13  C13        2.8260   35.9500   58.6800 C.3     0  <0>0        0.0069
     14  C14        2.6730   35.4360   57.2460 C.3     0  <0>0        0.0515
     15  C15        3.7170   36.0680   56.3060 C.3     0  <0>0        0.0070
     16  C16        3.6370   35.1080   55.0800 C.3     0  <0>0        0.0082
     17  C17        3.4650   33.7160   55.7280 C.3     0  <0>0        0.0645
     18  C18        2.8680   33.9460   57.1050 C.2     0  <0>0        0.1498
     19  O1         2.5980   33.1010   57.9250 O.2     0  <0>0       -0.2961
     20  C19        1.2710   35.8020   56.7530 C.3     0  <0>0        0.0073
     21  O2        10.4360   34.8700   59.9500 O.3     0  <0>0       -0.3316
     22  C20       10.5830   35.7380   61.0750 C.3     0  <0>0        0.1767
     23  O3         8.8660   33.5790   58.8090 O.3     0  <0>0       -0.3316
     24  C21        8.8780   32.5020   59.7480 C.3     0  <0>0        0.1767
@<TRIPOS>BOND
     1    16    17    1
     2    16    15    1
     3    17    18    1
     4     9     8    1
     5     9    10    1
     6    15    10    1
     7    15    14    1
     8     8     7    1
     9    20    14    1
    10    10    11    1
    11    18    14    1
    12    18    19    2
    13    14    13    1
    14     7     6    1
    15     7     2    1
    16    11     2    1
    17    11    12    1
    18     6     5    1
    19    13    12    1
    20    23     5    1
    21    23    24    1
    22     2     1    1
    23     2     3    1
    24     5    21    1
    25     5     4    1
    26     3     4    1
    27    21    22    1
