@<TRIPOS>MOLECULE
ZINC25819075_replica-1.pdb
 30 32 0 0 0
SMALL
GASTEIGER

@<TRIPOS>ATOM
      1  S1        -1.0950   31.1560   54.5400 S.3     0  <0>0       -0.0098
      2  C10       -0.8130   29.4760   54.0910 C.1     0  <0>0        0.1692
      3  N2        -1.2920   29.0390   52.9400 N.2     0  <0>0       -0.3386
      4  C9        -1.0970   27.7670   52.5620 C.2     0  <0>0        0.1336
      5  C4        -0.3700   26.9050   53.4180 C.3     0  <0>0        0.1426
      6  C8        -1.5910   27.2720   51.3480 C.2     0  <0>0        0.0293
      7  C3         0.1200   27.4290   54.6420 C.2     0  <0>0        0.1803
      8  C5        -0.1560   25.5750   53.0420 C.2     0  <0>0       -0.0110
      9  N3        -0.1200   28.7010   54.9220 N.2     0  <0>0       -0.3236
     10  C6        -0.6500   25.1250   51.8530 C.2     0  <0>0       -0.0036
     11  C7        -1.3650   25.9700   51.0100 C.2     0  <0>0        0.0020
     12  N1         0.8350   26.6360   55.5140 N.pl3   0  <0>0       -0.3105
     13  H8         1.5190   25.8670   55.1250 H       0  <0>0        0.1489
     14  C2         0.6820   26.8160   56.9600 C.3     0  <0>0        0.0889
     15  C1        -0.5580   26.0600   57.4400 C.3     0  <0>0        0.0230
     16  C11       -1.9880   30.9190   56.0970 C.3     0  <0>0        0.1395
     17  C12       -2.9440   29.7320   55.9610 C.3     0  <0>0        0.0225
     18  C13       -1.0030   30.6450   57.2040 C.2     0  <0>0        0.2334
     19  O1        -1.1910   29.7230   57.9690 O.2     0  <0>0       -0.2742
     20  N4         0.0870   31.4260   57.3450 N.am    0  <0>0       -0.3015
     21  H16        0.2570   32.2630   56.6520 H       0  <0>0        0.1497
     22  C14        1.0440   31.1600   58.4220 C.3     0  <0>0        0.0941
     23  C15        2.4470   31.5720   57.9700 C.3     0  <0>0        0.0262
     24  C16        0.6580   31.9520   59.6440 C.ar    0  <0>0       -0.0044
     25  C21        0.5950   33.3320   59.5830 C.ar    0  <0>0       -0.0004
     26  C20        0.2400   34.0580   60.7040 C.ar    0  <0>0        0.0294
     27  C19       -0.0510   33.4040   61.8880 C.ar    0  <0>0        0.1401
     28  C18        0.0130   32.0220   61.9490 C.ar    0  <0>0        0.0294
     29  F1        -0.3980   34.1130   62.9850 F       0  <0>0       -0.2042
     30  C17        0.3620   31.2980   60.8260 C.ar    0  <0>0       -0.0004
@<TRIPOS>BOND
     1    11     6    2
     2    11    10    1
     3     6     4    1
     4    10     8    2
     5     4     3    2
     6     4     5    1
     7     3     2    2
     8     8     5    1
     9     5     7    1
    10     2     1    1
    11     2     9    2
    12     1    16    1
    13     7     9    2
    14     7    12    1
    15    13    12    1
    16    12    14    1
    17    17    16    1
    18    16    18    1
    19    21    20    1
    20    14    15    1
    21    18    20   am
    22    18    19    2
    23    20    22    1
    24    23    22    1
    25    22    24    1
    26    25    24   ar
    27    25    26   ar
    28    24    30   ar
    29    26    27   ar
    30    30    28   ar
    31    27    28   ar
    32    27    29    1
