@<TRIPOS>MOLECULE
ZINC04663307_replica-1.pdb
 25 28 0 0 0
SMALL
GASTEIGER

@<TRIPOS>ATOM
      1  C5         5.4090   36.3360   58.6080 C.ar    0  <0>0        0.0193
      2  C6         6.3070   36.9080   59.4650 C.ar    0  <0>0        0.0762
      3  N2         7.4460   37.2160   58.7950 N.ar    0  <0>0       -0.3218
      4  C7         7.3370   36.8560   57.4680 C.ar    0  <0>0        0.0602
      5  C8         6.0670   36.2860   57.2880 C.ar    0  <0>0        0.0173
      6  C9         5.6810   35.8220   56.0330 C.ar    0  <0>0        0.0015
      7  C10        6.5530   35.9210   54.9710 C.ar    0  <0>0        0.0001
      8  C11        7.8100   36.4820   55.1480 C.ar    0  <0>0        0.0015
      9  C12        8.2010   36.9520   56.3820 C.ar    0  <0>0        0.0172
     10  C4         4.0640   35.8630   58.9350 C.2     0  <0>0        0.0126
     11  C3         3.8650   34.5610   59.2790 C.2     0  <0>0        0.0850
     12  C2         4.7790   33.4640   59.2490 C.2     0  <0>0        0.2596
     13  S1         2.3920   33.7610   59.9000 S.3     0  <0>0       -0.0604
     14  N1         4.3410   32.2810   59.6430 N.am    0  <0>0       -0.2423
     15  O1         5.9260   33.6140   58.8700 O.2     0  <0>0       -0.2690
     16  C1         5.2510   31.1320   59.6250 C.3     0  <0>0        0.1213
     17  C20        3.0680   32.1150   60.0640 C.2     0  <0>0        0.1213
     18  S2         2.2960   30.6880   60.6120 S.2     0  <0>0       -0.0272
     19  C13        8.6270   37.8430   59.3970 C.3     0  <0>0        0.1328
     20  C14        9.4920   36.7820   60.0270 C.ar    0  <0>0        0.0004
     21  C19       10.0470   36.9940   61.2740 C.ar    0  <0>0       -0.0024
     22  C18       10.8410   36.0220   61.8530 C.ar    0  <0>0       -0.0003
     23  C17       11.0800   34.8360   61.1830 C.ar    0  <0>0       -0.0000
     24  C16       10.5240   34.6230   59.9340 C.ar    0  <0>0       -0.0003
     25  C15        9.7270   35.5950   59.3590 C.ar    0  <0>0       -0.0024
@<TRIPOS>BOND
     1     7     8   ar
     2     7     6   ar
     3     8     9   ar
     4     6     5   ar
     5     9     4   ar
     6     5     4   ar
     7     5     1   ar
     8     4     3   ar
     9     1    10    1
    10     1     2   ar
    11     3    19    1
    12     3     2   ar
    13    15    12    2
    14    10    11    2
    15    12    11    1
    16    12    14   am
    17    11    13    1
    18    25    24   ar
    19    25    20   ar
    20    19    20    1
    21    16    14    1
    22    14    17    1
    23    13    17    1
    24    24    23   ar
    25    20    21   ar
    26    17    18    2
    27    23    22   ar
    28    21    22   ar
