@<TRIPOS>MOLECULE
ZINC13980937_replica-1.pdb
 25 25 0 0 0
SMALL
GASTEIGER

@<TRIPOS>ATOM
      1  C9         0.0880   31.7370   55.8480 C.2     0  <0>0        0.2856
      2  O2         0.6110   31.0050   56.6610 O.2     0  <0>0       -0.2693
      3  N1         0.1780   33.0750   55.9890 N.am    0  <0>0       -0.2028
      4  H9        -0.2410   33.6600   55.3380 H       0  <0>0        0.1774
      5  N2         0.8750   33.6200   57.0740 N.2     0  <0>0       -0.1775
      6  C10        1.8590   34.4430   56.8680 C.2     0  <0>0        0.1170
      7  C11        2.5890   35.0140   58.0050 C.2     0  <0>0        0.0138
      8  C12        3.7740   35.5890   57.8150 C.2     0  <0>0       -0.0420
      9  C13        4.3660   35.6530   56.4300 C.3     0  <0>0        0.0264
     10  C14        4.5240   36.1760   58.9830 C.3     0  <0>0        0.0267
     11  C15        6.0230   35.9260   58.8030 C.3     0  <0>0        0.0297
     12  C16        6.7430   37.2470   58.7100 C.2     0  <0>0       -0.0342
     13  C17        7.7870   37.3690   57.9280 C.2     0  <0>0       -0.0478
     14  C18        8.3480   36.1590   57.2250 C.3     0  <0>0        0.0260
     15  C19        8.4280   38.7190   57.7320 C.3     0  <0>0        0.0260
     16  C8        -0.6620   31.1510   54.6790 C.3     0  <0>0        0.2911
     17  O1        -1.2870   29.9290   55.0790 O.3     0  <0>0       -0.4656
     18  C6        -1.0260   28.8280   54.3270 C.ar    0  <0>0        0.1387
     19  C5        -1.4690   28.7630   53.0140 C.ar    0  <0>0        0.0326
     20  C4        -1.2030   27.6420   52.2510 C.ar    0  <0>0       -0.0192
     21  C3        -0.4950   26.5870   52.7950 C.ar    0  <0>0       -0.0083
     22  C20       -1.6840   27.5710   50.8250 C.3     0  <0>0        0.0311
     23  C2        -0.0520   26.6490   54.1040 C.ar    0  <0>0       -0.0192
     24  C1         0.7180   25.4960   54.6930 C.3     0  <0>0        0.0311
     25  C7        -0.3110   27.7700   54.8690 C.ar    0  <0>0        0.0326
@<TRIPOS>BOND
     1    22    20    1
     2    20    21   ar
     3    20    19   ar
     4    21    23   ar
     5    19    18   ar
     6    23    24    1
     7    23    25   ar
     8    18    25   ar
     9    18    17    1
    10    16    17    1
    11    16     1    1
    12     4     3    1
    13     1     3   am
    14     1     2    2
    15     3     5    1
    16     9     8    1
    17     6     5    2
    18     6     7    1
    19    14    13    1
    20    15    13    1
    21     8     7    2
    22     8    10    1
    23    13    12    2
    24    12    11    1
    25    11    10    1
