@<TRIPOS>MOLECULE
ZINC59851541_replica-1.pdb
 22 24 0 0 0
SMALL
GASTEIGER

@<TRIPOS>ATOM
      1  C8         6.9440   36.9370   57.3590 C.2     0  <0>0        0.1923
      2  C9         6.6970   36.5540   55.9550 C.2     0  <0>0        0.3738
      3  O1         7.4500   36.6860   55.0090 O.2     0  <0>0       -0.2419
      4  O2         5.4550   36.0240   55.9460 O.3     0  <0>0       -0.3911
      5  C10        4.9600   36.0620   57.1990 C.2     0  <0>0        0.2843
      6  N1         5.8130   36.5840   58.0360 N.2     0  <0>0       -0.3648
      7  C7         8.0800   37.5200   57.8770 C.3     0  <0>0        0.0922
      8  C6         8.9120   36.7830   58.8330 C.ar    0  <0>0       -0.0149
      9  C1         9.3630   35.4920   58.5260 C.ar    0  <0>0       -0.0033
     10  C2        10.1460   34.8080   59.4300 C.ar    0  <0>0        0.0064
     11  C3        10.4870   35.3920   60.6390 C.ar    0  <0>0        0.0345
     12  C4        10.0440   36.6680   60.9510 C.ar    0  <0>0        0.0064
     13 Br         11.5610   34.4420   61.8720 Br      0  <0>0       -0.0490
     14  C5         9.2600   37.3660   60.0580 C.ar    0  <0>0       -0.0033
     15  C11        3.6210   35.5680   57.5770 C.ar    0  <0>0        0.0689
     16  C16        2.4830   36.0710   56.9410 C.ar    0  <0>0        0.0377
     17  C15        1.2350   35.6020   57.2960 C.ar    0  <0>0        0.1676
     18  C14        1.1080   34.6410   58.2900 C.ar    0  <0>0        0.1674
     19  F1         0.1330   36.0810   56.6780 F       0  <0>0       -0.2018
     20  C13        2.2350   34.1450   58.9280 C.ar    0  <0>0        0.0322
     21  F2        -0.1160   34.1890   58.6380 F       0  <0>0       -0.2018
     22  C12        3.4870   34.6020   58.5770 C.ar    0  <0>0        0.0082
@<TRIPOS>BOND
     1     3     2    2
     2     4     2    1
     3     4     5    1
     4     2     1    1
     5    19    17    1
     6    16    17   ar
     7    16    15   ar
     8     5    15    1
     9     5     6    2
    10    17    18   ar
    11     1     7    1
    12     1     6    2
    13    15    22   ar
    14     7     8    1
    15    18    21    1
    16    18    20   ar
    17     9     8   ar
    18     9    10   ar
    19    22    20   ar
    20     8    14   ar
    21    10    11   ar
    22    14    12   ar
    23    11    12   ar
    24    11    13    1
