@<TRIPOS>MOLECULE
ZINC43735636_replica-1.pdb
 29 32 0 0 0
SMALL
GASTEIGER

@<TRIPOS>ATOM
      1  C1         8.5370   38.6470   57.6910 C.3     0  <0>0        0.0017
      2  C2         8.2450   37.2810   57.0670 C.3     0  <0>0        0.0180
      3  C3         6.7480   37.1900   56.6620 C.3     0  <0>0        0.0017
      4  C4         6.3950   35.7320   56.9760 C.3     0  <0>0        0.0019
      5  C5         4.9210   35.4390   57.1820 C.3     0  <0>0        0.0047
      6  C6         4.1620   35.6820   55.8710 C.3     0  <0>0        0.0254
      7  C7         2.7400   35.2300   56.0330 C.2     0  <0>0       -0.0345
      8  C8         2.3810   34.3070   56.8760 C.2     0  <0>0       -0.0455
      9  C9         0.9120   33.9240   56.9420 C.3     0  <0>0        0.0653
     10  C10        0.8020   32.4030   56.8080 C.3     0  <0>0        0.1728
     11  C11        1.6660   31.7320   57.8770 C.3     0  <0>0        0.0443
     12  C12        3.1380   32.0790   57.6430 C.3     0  <0>0        0.0074
     13  C13        3.3330   33.5910   57.7880 C.3     0  <0>0        0.0151
     14  C14        4.7910   33.9580   57.5650 C.3     0  <0>0        0.0038
     15  C15        5.6230   33.6170   58.7990 C.3     0  <0>0        0.0004
     16  C16        7.0920   34.0360   58.6280 C.3     0  <0>0        0.0016
     17  C17        7.1180   35.5200   58.3330 C.3     0  <0>0        0.0165
     18  C18        8.4860   36.1580   58.1060 C.3     0  <0>0        0.0714
     19  C21        6.3690   36.2610   59.4420 C.3     0  <0>0        0.0016
     20  C22        2.9970   33.9780   59.2290 C.3     0  <0>0        0.0040
     21  N1         8.9950   36.7260   59.3570 N.am    0  <0>0       -0.3060
     22  C19        9.9330   36.0650   60.0640 C.2     0  <0>0        0.2229
     23  O1        10.3550   35.0010   59.6660 O.2     0  <0>0       -0.2751
     24  C20       10.4560   36.6490   61.3510 C.3     0  <0>0        0.0946
     25  H25        8.6570   37.5770   59.6770 H       0  <0>0        0.1494
     26  O2        -0.5600   32.0070   56.9780 O.3     0  <0>0       -0.4519
     27  C23       -1.1370   31.3520   55.9580 C.2     0  <0>0        0.3174
     28  O3        -2.3260   31.1380   55.9700 O.2     0  <0>0       -0.2501
     29  C24       -0.2990   30.8840   54.7950 C.3     0  <0>0        0.1212
@<TRIPOS>BOND
     1    29    27    1
     2     6     7    1
     3     6     5    1
     4    27    28    2
     5    27    26    1
     6     7     8    2
     7     3     4    1
     8     3     2    1
     9    10     9    1
    10    10    26    1
    11    10    11    1
    12     8     9    1
    13     8    13    1
    14     4     5    1
    15     4    17    1
    16     2     1    1
    17     2    18    1
    18     5    14    1
    19    14    13    1
    20    14    15    1
    21    12    13    1
    22    12    11    1
    23    13    20    1
    24    18    17    1
    25    18    21    1
    26    17    16    1
    27    17    19    1
    28    16    15    1
    29    21    25    1
    30    21    22   am
    31    23    22    2
    32    22    24    1
