@<TRIPOS>MOLECULE
ZINC52255894_replica-1.pdb
 21 21 0 0 0
SMALL
GASTEIGER

@<TRIPOS>ATOM
      1  C8         8.4020   36.7890   58.3930 C.3     0  <0>0        0.1168
      2  C4         6.9650   36.3590   58.6900 C.3     0  <0>0        0.1274
      3  C3         6.3860   35.6700   57.4820 C.2     0  <0>0        0.3191
      4  O2         6.8840   34.6480   57.0730 O.2     0  <0>0       -0.2500
      5  O1         5.3180   36.1910   56.8590 O.3     0  <0>0       -0.4484
      6  C2         4.0950   35.4550   56.9400 C.3     0  <0>0        0.2086
      7  C1         3.3320   35.8710   58.1990 C.3     0  <0>0        0.0513
      8  C5         6.9560   35.3950   59.8800 C.3     0  <0>0        0.0132
      9  C6         6.0500   35.9520   60.9800 C.3     0  <0>0        0.0007
     10  C7         6.4300   34.0320   59.4270 C.3     0  <0>0        0.0007
     11  C9         9.3120   36.2920   59.4870 C.ar    0  <0>0        0.0022
     12  C14        9.5280   37.0660   60.6120 C.ar    0  <0>0       -0.0020
     13  C13       10.3580   36.6090   61.6180 C.ar    0  <0>0       -0.0002
     14  C12       10.9810   35.3800   61.4940 C.ar    0  <0>0       -0.0000
     15  C11       10.7690   34.6080   60.3670 C.ar    0  <0>0       -0.0002
     16  C10        9.9350   35.0640   59.3640 C.ar    0  <0>0       -0.0020
     17  C15        8.4740   38.3150   58.3250 C.3     0  <0>0        0.0291
     18  C16        8.5820   38.7550   56.8620 C.3     0  <0>0        0.0028
     19  C17        7.2120   38.9150   58.9460 C.3     0  <0>0        0.0028
     20  O3         8.8160   36.2350   57.1430 O.3     0  <0>0       -0.3821
     21  H26        8.5210   35.3260   56.9980 H       0  <0>0        0.2107
@<TRIPOS>BOND
     1     5     6    1
     2     5     3    1
     3    18    17    1
     4     6     7    1
     5    21    20    1
     6     4     3    2
     7    20     1    1
     8     3     2    1
     9    17     1    1
    10    17    19    1
    11     1     2    1
    12     1    11    1
    13     2     8    1
    14    16    11   ar
    15    16    15   ar
    16    10     8    1
    17    11    12   ar
    18     8     9    1
    19    15    14   ar
    20    12    13   ar
    21    14    13   ar
