@<TRIPOS>MOLECULE
ZINC00202942_replica-1.pdb
 22 24 0 0 0
SMALL
GASTEIGER

@<TRIPOS>ATOM
      1  C7         7.7030   37.0060   57.4530 C.3     0  <0>0        0.2114
      2  N1         6.3100   36.8660   57.8890 N.am    0  <0>0       -0.2729
      3  C8         5.6120   35.7390   57.8120 C.2     0  <0>0        0.3101
      4  O1         4.4910   35.7790   58.2800 O.2     0  <0>0       -0.2522
      5  N2         5.9820   34.5710   57.2890 N.am    0  <0>0       -0.2235
      6  C9         5.1260   33.3820   57.4340 C.3     0  <0>0        0.1037
      7  C10        6.0110   32.1940   57.8130 C.3     0  <0>0        0.0483
      8  C11        7.1240   32.0060   56.7910 C.3     0  <0>0        0.1292
      9  N3         7.6700   33.2690   56.3260 N.2     0  <0>0       -0.2505
     10  C12        7.1660   34.4240   56.5790 C.2     0  <0>0        0.1633
     11  S1         7.9530   35.9090   56.0190 S.3     0  <0>0       -0.0506
     12  H6         5.8700   37.6480   58.2570 H       0  <0>0        0.1522
     13  C4         8.6310   36.6030   58.5710 C.ar    0  <0>0        0.0117
     14  C3         9.3940   35.4570   58.4560 C.ar    0  <0>0       -0.0016
     15  C2        10.2460   35.0880   59.4810 C.ar    0  <0>0       -0.0002
     16  C1        10.3340   35.8670   60.6200 C.ar    0  <0>0       -0.0000
     17  C6         9.5710   37.0140   60.7340 C.ar    0  <0>0       -0.0002
     18  C5         8.7190   37.3820   59.7100 C.ar    0  <0>0       -0.0016
     19  C13        7.9760   38.4560   57.0500 C.3     0  <0>0        0.4249
     20  F1         7.4780   39.3160   58.0350 F       0  <0>0       -0.1671
     21  F2         9.3540   38.6510   56.9140 F       0  <0>0       -0.1671
     22  F3         7.3450   38.7280   55.8310 F       0  <0>0       -0.1671
@<TRIPOS>BOND
     1    22    19    1
     2    11    10    1
     3    11     1    1
     4     9    10    2
     5     9     8    1
     6    10     5    1
     7     8     7    1
     8    21    19    1
     9    19     1    1
    10    19    20    1
    11     5     6    1
    12     5     3   am
    13     6     7    1
    14     1     2    1
    15     1    13    1
    16     3     2   am
    17     3     4    2
    18     2    12    1
    19    14    13   ar
    20    14    15   ar
    21    13    18   ar
    22    15    16   ar
    23    18    17   ar
    24    16    17   ar
