@<TRIPOS>MOLECULE
ZINC32132527_replica-1.pdb
 22 23 0 0 0
SMALL
GASTEIGER

@<TRIPOS>ATOM
      1  C5        -1.0860   28.3040   53.2190 C.ar    0  <0>0        0.1361
      2  C6        -1.7960   28.5570   52.0540 C.ar    0  <0>0        0.0366
      3  C7        -1.8710   27.5920   51.0690 C.ar    0  <0>0        0.0031
      4  C8        -1.2400   26.3740   51.2430 C.ar    0  <0>0       -0.0001
      5  C9        -0.5270   26.1220   52.4010 C.ar    0  <0>0        0.0004
      6  C10       -0.4530   27.0830   53.3920 C.ar    0  <0>0        0.0314
      7  C11        0.3190   26.8060   54.6550 C.3     0  <0>0        0.1173
      8  N1         0.8360   25.4350   54.6210 N.pl3   0  <0>0       -0.3290
      9  H16        1.4860   25.1120   53.7940 H       0  <0>0        0.1471
     10  C12        0.5030   24.5360   55.6420 C.ar    0  <0>0        0.0451
     11  C17        0.6740   23.1730   55.4480 C.ar    0  <0>0        0.0174
     12  C16        0.3460   22.2860   56.4550 C.ar    0  <0>0        0.0382
     13  C15       -0.1520   22.7590   57.6600 C.ar    0  <0>0        0.1388
     14  C14       -0.3230   24.1220   57.8540 C.ar    0  <0>0        0.0382
     15  C13        0.0050   25.0090   56.8480 C.ar    0  <0>0        0.0174
     16  O2        -0.4740   21.8860   58.6520 O.3     0  <0>0       -0.4714
     17  C18        0.5460   20.9780   59.0730 C.3     0  <0>0        0.2525
     18  O1        -1.0110   29.2530   54.1890 O.3     0  <0>0       -0.4757
     19  C4        -2.1450   30.1080   54.3500 C.3     0  <0>0        0.2053
     20  C2        -2.5200   30.1830   55.8320 C.3     0  <0>0        0.0438
     21  C1        -3.0940   28.8380   56.2810 C.3     0  <0>0        0.0038
     22  C3        -1.2720   30.5050   56.6580 C.3     0  <0>0        0.0038
@<TRIPOS>BOND
     1     3     4   ar
     2     3     2   ar
     3     4     5   ar
     4     2     1   ar
     5     5     6   ar
     6     1     6   ar
     7     1    18    1
     8     6     7    1
     9     9     8    1
    10    18    19    1
    11    19    20    1
    12     8     7    1
    13     8    10    1
    14    11    10   ar
    15    11    12   ar
    16    10    15   ar
    17    20    21    1
    18    20    22    1
    19    12    13   ar
    20    15    14   ar
    21    13    14   ar
    22    13    16    1
    23    16    17    1
