@<TRIPOS>MOLECULE
ZINC62041527_replica-1.pdb
 23 25 0 0 0
SMALL
GASTEIGER

@<TRIPOS>ATOM
      1  C2        -0.5920   26.0750   51.8320 C.ar    0  <0>0        0.1388
      2  C3        -1.3090   27.0110   51.0880 C.ar    0  <0>0        0.0374
      3  C4        -1.6970   28.1950   51.6800 C.ar    0  <0>0        0.0096
      4  C5        -1.3730   28.4400   52.9970 C.ar    0  <0>0        0.0306
      5  C6        -0.6460   27.5150   53.7820 C.ar    0  <0>0        0.0202
      6  C7        -0.2660   26.3050   53.1450 C.ar    0  <0>0        0.0383
      7  C8        -0.3960   27.9140   55.1080 C.ar    0  <0>0        0.0686
      8  C9        -0.8460   29.1210   55.5500 C.ar    0  <0>0        0.0937
      9  S1        -1.6660   29.7890   54.1130 S.2     0  <0>0       -0.0816
     10 Cl          0.4860   26.8700   56.1800 Cl      0  <0>0       -0.0816
     11  C10       -0.6940   29.7240   56.8800 C.2     0  <0>0        0.2574
     12  O2        -1.6090   29.6710   57.6800 O.2     0  <0>0       -0.2692
     13  N1         0.4580   30.3370   57.2130 N.am    0  <0>0       -0.2654
     14  H7         1.2130   30.3160   56.6040 H       0  <0>0        0.1566
     15  C11        0.5660   31.0010   58.4330 C.ar    0  <0>0        0.1345
     16  N2         0.7050   30.3030   59.5500 N.ar    0  <0>0       -0.2281
     17  C15        0.8170   30.8920   60.7250 C.ar    0  <0>0        0.1116
     18  C14        0.7800   32.2690   60.8340 C.ar    0  <0>0        0.0769
     19  C13        0.6290   33.0380   59.6860 C.ar    0  <0>0        0.0158
     20 Cl          0.9200   33.0300   62.3870 Cl      0  <0>0       -0.0806
     21  C12        0.5200   32.3900   58.4680 C.ar    0  <0>0        0.0354
     22  O1        -0.2100   24.9090   51.2460 O.3     0  <0>0       -0.4714
     23  C1        -0.3970   23.7120   52.0030 C.3     0  <0>0        0.2525
@<TRIPOS>BOND
     1     2     3   ar
     2     2     1   ar
     3    22     1    1
     4    22    23    1
     5     3     4   ar
     6     1     6   ar
     7     4     5   ar
     8     4     9   ar
     9     6     5   ar
    10     5     7   ar
    11     9     8   ar
    12     7     8   ar
    13     7    10    1
    14     8    11    1
    15    14    13    1
    16    11    13   am
    17    11    12    2
    18    13    15    1
    19    15    21   ar
    20    15    16   ar
    21    21    19   ar
    22    16    17   ar
    23    19    18   ar
    24    17    18   ar
    25    18    20    1
