@<TRIPOS>MOLECULE
ZINC41661045_replica-1.pdb
 30 34 0 0 0
SMALL
GASTEIGER

@<TRIPOS>ATOM
      1  C6         2.3570   32.1440   60.4400 C.2     0  <0>0        0.0470
      2  C7         1.5410   31.1100   60.0880 C.2     0  <0>0        0.1845
      3  C8         1.4470   29.8600   60.7570 C.2     0  <0>0        0.2327
      4  O1         2.0690   29.5000   61.7440 O.2     0  <0>0       -0.2832
      5  C9         0.4390   29.0930   60.0040 C.ar    0  <0>0        0.0765
      6  C10       -0.1000   27.8150   60.1470 C.ar    0  <0>0        0.0094
      7  C11       -1.0450   27.3760   59.2650 C.ar    0  <0>0        0.0370
      8  C12       -1.4750   28.1970   58.2220 C.ar    0  <0>0        0.1407
      9  C13       -0.9500   29.4680   58.0710 C.ar    0  <0>0        0.0626
     10  C14        0.0140   29.9300   58.9600 C.ar    0  <0>0        0.1487
     11  O2         0.6790   31.1030   59.0440 O.3     0  <0>0       -0.4503
     12  C15       -1.4120   30.3690   56.9540 C.3     0  <0>0        0.1082
     13  N1        -2.0920   29.5690   55.9260 N.3     0  <0>0       -0.2316
     14  C16       -3.0940   28.6890   56.5500 C.3     0  <0>0        0.2848
     15  O3        -2.4150   27.7270   57.3600 O.3     0  <0>0       -0.4583
     16  C17       -2.7090   30.4320   54.9100 C.3     0  <0>0        0.0761
     17  C18       -2.1920   30.0400   53.5240 C.3     0  <0>0        0.0221
     18  C19       -0.8770   29.2710   53.6690 C.3     0  <0>0        0.0278
     19  C20       -0.9510   27.9950   52.8710 C.ar    0  <0>0       -0.0221
     20  C25       -0.2810   26.8670   53.3090 C.ar    0  <0>0       -0.0043
     21  C24       -0.3520   25.6950   52.5790 C.ar    0  <0>0       -0.0003
     22  C23       -1.0860   25.6530   51.4080 C.ar    0  <0>0       -0.0000
     23  C22       -1.7510   26.7820   50.9690 C.ar    0  <0>0       -0.0003
     24  C21       -1.6830   27.9530   51.7000 C.ar    0  <0>0       -0.0043
     25  C5         2.3480   33.3400   59.6880 C.ar    0  <0>0        0.0287
     26  C2         1.4820   34.4270   59.7780 C.ar    0  <0>0       -0.0152
     27  C1         0.3490   34.4710   60.7720 C.3     0  <0>0        0.0316
     28  C3         1.7310   35.4580   58.9070 C.ar    0  <0>0        0.0032
     29  C4         2.7690   35.3540   58.0390 C.ar    0  <0>0        0.0351
     30  S1         3.4410   33.8510   58.3760 S.2     0  <0>0       -0.0867
@<TRIPOS>BOND
     1    23    22   ar
     2    23    24   ar
     3    22    21   ar
     4    24    19   ar
     5    21    20   ar
     6    19    20   ar
     7    19    18    1
     8    17    18    1
     9    17    16    1
    10    16    13    1
    11    13    14    1
    12    13    12    1
    13    14    15    1
    14    12     9    1
    15    15     8    1
    16    29    30   ar
    17    29    28   ar
    18     9     8   ar
    19     9    10   ar
    20     8     7   ar
    21    30    25   ar
    22    28    26   ar
    23    10    11    1
    24    10     5   ar
    25    11     2    1
    26     7     6   ar
    27    25    26   ar
    28    25     1    1
    29    26    27    1
    30     5     6   ar
    31     5     3    1
    32     2     1    2
    33     2     3    1
    34     3     4    2
