@<TRIPOS>MOLECULE
ZINC04731271_replica-1.pdb
 24 27 0 0 0
SMALL
GASTEIGER

@<TRIPOS>ATOM
      1  C3        10.3040   35.2520   61.2320 C.3     0  <0>0        0.1688
      2  C4         9.4480   36.4380   61.6740 C.3     0  <0>0        0.0436
      3  C5         8.0500   36.3490   61.0700 C.3     0  <0>0        0.0037
      4  C6         8.1210   36.2950   59.5390 C.3     0  <0>0        0.0002
      5  C7         8.9730   35.0820   59.1380 C.3     0  <0>0        0.0036
      6  C8        10.3840   35.2150   59.7020 C.3     0  <0>0        0.0436
      7  C9         9.0000   34.8680   57.6310 C.3     0  <0>0        0.0001
      8  C10        7.5690   34.6750   57.0940 C.3     0  <0>0        0.0000
      9  C11        6.7870   35.9270   57.4540 C.3     0  <0>0        0.0004
     10  C12        6.7240   36.0500   58.9820 C.3     0  <0>0        0.0000
     11  C13        5.6770   37.0850   59.3550 C.3     0  <0>0        0.0004
     12  C14        4.2850   36.4630   59.1130 C.3     0  <0>0        0.0069
     13  C15        4.3000   35.6390   57.8490 C.3     0  <0>0        0.0515
     14  C16        5.4150   36.0800   56.8830 C.3     0  <0>0        0.0070
     15  C17        5.0770   35.2610   55.6260 C.3     0  <0>0        0.0082
     16  C18        3.5240   35.3200   55.5930 C.3     0  <0>0        0.0645
     17  C19        3.0740   35.8010   56.9680 C.2     0  <0>0        0.1498
     18  O3         1.9960   36.2150   57.2930 O.2     0  <0>0       -0.2961
     19  C20        4.4040   34.1510   58.1900 C.3     0  <0>0        0.0073
     20  C21        8.7050   37.6000   59.0070 C.3     0  <0>0        0.0000
     21  O2        11.6420   35.3840   61.7820 O.3     0  <0>0       -0.4523
     22  C2        12.2310   34.2640   62.2250 C.2     0  <0>0        0.3174
     23  C1        13.7310   34.1290   62.1670 C.3     0  <0>0        0.1212
     24  O1        11.5600   33.3640   62.6720 O.2     0  <0>0       -0.2501
@<TRIPOS>BOND
     1    16    15    1
     2    16    17    1
     3    15    14    1
     4    14     9    1
     5    14    13    1
     6    17    18    2
     7    17    13    1
     8     8     9    1
     9     8     7    1
    10     9    10    1
    11     7     5    1
    12    13    19    1
    13    13    12    1
    14    10    11    1
    15    10     4    1
    16    20     4    1
    17    12    11    1
    18     5     4    1
    19     5     6    1
    20     4     3    1
    21     6     1    1
    22     3     2    1
    23     1     2    1
    24     1    21    1
    25    21    22    1
    26    23    22    1
    27    22    24    2
