@<TRIPOS>MOLECULE
ZINC56146654_replica-1.pdb
 27 28 0 0 0
SMALL
GASTEIGER

@<TRIPOS>ATOM
      1  N1         6.6470   35.0400   56.5740 N.am    0  <0>0       -0.3022
      2  C10        5.7190   35.9930   56.7840 C.2     0  <0>0        0.2460
      3  O1         5.4650   36.3570   57.9180 O.2     0  <0>0       -0.2701
      4  H11        6.8490   34.7510   55.6710 H       0  <0>0        0.1497
      5  C11        5.0150   36.5920   55.6510 C.2     0  <0>0        0.0577
      6  C12        3.7480   36.2210   55.3700 C.2     0  <0>0        0.0047
      7  C13        2.9870   35.4150   56.3340 C.ar    0  <0>0        0.0002
      8  C18        2.0990   36.0330   57.2220 C.ar    0  <0>0        0.0014
      9  C17        1.3870   35.2750   58.1160 C.ar    0  <0>0        0.0180
     10  C16        1.5560   33.8930   58.1490 C.ar    0  <0>0        0.0906
     11  C15        2.4420   33.2750   57.2720 C.ar    0  <0>0        0.0180
     12  C14        3.1530   34.0240   56.3710 C.ar    0  <0>0        0.0014
     13  N2         0.8360   33.1290   59.0630 N.pl3   0  <0>0       -0.1006
     14  S1         1.0780   33.3350   60.6870 S.O2    0  <0>0        0.0750
     15  O2         2.4740   33.5710   60.8200 O.2     0  <0>0       -0.1528
     16  O3         0.1360   34.3270   61.0710 O.2     0  <0>0       -0.1528
     17  C19        0.6420   31.7380   61.4300 C.3     0  <0>0        0.2016
     18  C2         7.3520   34.4410   57.7090 C.3     0  <0>0        0.0763
     19  C1         7.1650   32.9230   57.6830 C.3     0  <0>0        0.0216
     20  C3         8.8430   34.7720   57.6160 C.3     0  <0>0        0.0482
     21  C4         9.2900   35.4390   58.8920 C.ar    0  <0>0        0.0069
     22  C9         9.0130   36.7770   59.1070 C.ar    0  <0>0        0.1362
     23  C8         9.4210   37.3880   60.2820 C.ar    0  <0>0        0.0293
     24  F1         8.3410   37.4880   58.1740 F       0  <0>0       -0.2045
     25  C7        10.1130   36.6620   61.2320 C.ar    0  <0>0        0.0023
     26  C6        10.3930   35.3260   61.0130 C.ar    0  <0>0       -0.0002
     27  C5         9.9830   34.7150   59.8440 C.ar    0  <0>0       -0.0020
@<TRIPOS>BOND
     1     6     5    2
     2     6     7    1
     3     5     2    1
     4     4     1    1
     5     7    12   ar
     6     7     8   ar
     7    12    11   ar
     8     1     2   am
     9     1    18    1
    10     2     3    2
    11     8     9   ar
    12    11    10   ar
    13    20    18    1
    14    20    21    1
    15    19    18    1
    16     9    10   ar
    17    10    13    1
    18    24    22    1
    19    21    22   ar
    20    21    27   ar
    21    13    14    1
    22    22    23   ar
    23    27    26   ar
    24    23    25   ar
    25    14    15    2
    26    14    16    2
    27    14    17    1
    28    26    25   ar
