@<TRIPOS>MOLECULE
ZINC26961475_replica-1.pdb
 22 23 0 0 0
SMALL
GASTEIGER

@<TRIPOS>ATOM
      1  C6         9.5790   35.1480   60.0530 C.3     0  <0>0        0.0092
      2  C5         9.6190   36.6430   60.3800 C.3     0  <0>0        0.0005
      3  C4         8.2660   37.0770   60.9460 C.3     0  <0>0        0.0000
      4  C2         7.5420   37.9530   59.9210 C.3     0  <0>0        0.0000
      5  C1         6.4400   37.1390   59.2410 C.3     0  <0>0        0.0000
      6  C3         8.5420   38.4370   58.8690 C.3     0  <0>0        0.0000
      7  C7         9.7790   34.9490   58.5490 C.3     0  <0>0        0.0853
      8  C8         8.5230   34.3730   57.9480 C.2     0  <0>0        0.2256
      9  O1         8.0010   33.4000   58.4510 O.2     0  <0>0       -0.2749
     10  N1         7.9790   34.9390   56.8530 N.am    0  <0>0       -0.2795
     11  C12        6.7580   34.4800   56.1650 C.3     0  <0>0        0.0935
     12  C9         8.5020   36.1190   56.1490 C.3     0  <0>0        0.0935
     13  C11        6.2240   35.7340   55.4260 C.3     0  <0>0        0.0233
     14  C10        7.5440   36.4150   54.9760 C.3     0  <0>0        0.0233
     15  C13       10.6960   34.4300   60.8140 C.3     0  <0>0        0.0053
     16  C17       11.2140   35.3350   61.9370 C.3     0  <0>0        0.0273
     17  C16       12.2760   34.5800   62.7420 C.3     0  <0>0        0.0929
     18  O2        11.7100   33.3730   63.2580 O.3     0  <0>0       -0.3585
     19  C18       13.4590   34.2410   61.8340 C.3     0  <0>0        0.0296
     20  C19       12.7550   35.4560   63.9010 C.3     0  <0>0        0.0296
     21  C15       11.2510   32.4670   62.2520 C.3     0  <0>0        0.1419
     22  C14       10.1490   33.1380   61.4280 C.3     0  <0>0        0.0322
@<TRIPOS>BOND
     1    14    13    1
     2    14    12    1
     3    13    11    1
     4    12    10    1
     5    11    10    1
     6    10     8   am
     7     8     9    2
     8     8     7    1
     9     7     1    1
    10     6     4    1
    11     5     4    1
    12     4     3    1
    13     1     2    1
    14     1    15    1
    15     2     3    1
    16    15    22    1
    17    15    16    1
    18    22    21    1
    19    19    17    1
    20    16    17    1
    21    21    18    1
    22    17    18    1
    23    17    20    1
