@<TRIPOS>MOLECULE
ZINC20589882_replica-1.pdb
 18 19 0 0 0
SMALL
GASTEIGER

@<TRIPOS>ATOM
      1  C4         6.7290   35.6810   57.2330 C.2     0  <0>0        0.3447
      2  N1         5.5630   35.2830   56.8070 N.2     0  <0>0        0.0880
      3  N2         4.8990   34.7480   57.7680 N.2     0  <0>0        0.0474
      4  C5         5.6110   34.7750   58.8720 C.1     0  <0>0        0.1838
      5  N3         6.8040   35.3670   58.5630 N.am    0  <0>0       -0.0964
      6  S1         5.1220   34.1610   60.4500 S.2     0  <0>0        0.0565
      7  C6         7.8830   35.6050   59.4310 C.ar    0  <0>0        0.1737
      8  C11        7.9270   36.7740   60.1790 C.ar    0  <0>0        0.0973
      9  C10        8.9900   37.0070   61.0320 C.ar    0  <0>0        0.0263
     10 Cl          6.6510   37.9440   60.0430 Cl      0  <0>0       -0.0786
     11  C9        10.0070   36.0750   61.1420 C.ar    0  <0>0        0.0596
     12  C8         9.9650   34.9100   60.3970 C.ar    0  <0>0        0.0263
     13 Cl         11.3400   36.3690   62.2150 Cl      0  <0>0       -0.0822
     14  C7         8.9020   34.6700   59.5470 C.ar    0  <0>0        0.0973
     15 Cl          8.8450   33.2040   58.6180 Cl      0  <0>0       -0.0786
     16  C3         7.7950   36.3600   56.4120 C.3     0  <0>0        0.1213
     17  C2         7.5030   37.8600   56.3380 C.3     0  <0>0        0.0128
     18  C1         8.6020   38.6290   57.0740 C.3     0  <0>0        0.0006
@<TRIPOS>BOND
     1    17    16    1
     2    17    18    1
     3    16     1    1
     4     2     1    2
     5     2     3    1
     6     1     5    1
     7     3     4    2
     8     5     4    1
     9     5     7    1
    10    15    14    1
    11     4     6    2
    12     7    14   ar
    13     7     8   ar
    14    14    12   ar
    15    10     8    1
    16     8     9   ar
    17    12    11   ar
    18     9    11   ar
    19    11    13    1
