@<TRIPOS>MOLECULE
ZINC05309447_replica-1.pdb
 24 26 0 0 0
SMALL
GASTEIGER

@<TRIPOS>ATOM
      1  C11        8.3710   36.6730   58.4840 C.2     0  <0>0        0.1176
      2  N1         7.8960   35.7960   57.6540 N.2     0  <0>0       -0.1774
      3  C8         9.3140   36.2550   59.5370 C.ar    0  <0>0        0.0209
      4  C7         9.9810   35.0310   59.4350 C.ar    0  <0>0        0.0047
      5  C6        10.8660   34.6460   60.4200 C.ar    0  <0>0        0.0369
      6  C5        11.0920   35.4720   61.5140 C.ar    0  <0>0        0.1386
      7  C10       10.4270   36.6860   61.6220 C.ar    0  <0>0        0.0369
      8  C9         9.5410   37.0780   60.6430 C.ar    0  <0>0        0.0047
      9  O1        11.9660   35.0890   62.4810 O.3     0  <0>0       -0.4755
     10  C4        13.0400   34.2350   62.0840 C.3     0  <0>0        0.2054
     11  C3        13.6160   33.5330   63.3160 C.3     0  <0>0        0.0473
     12  C2        13.5530   32.0180   63.1140 C.3     0  <0>0        0.0038
     13  C1        12.1150   31.5340   63.3200 C.3     0  <0>0        0.0001
     14  N2         7.0000   36.1930   56.6530 N.pl3   0  <0>0       -0.2047
     15  H15        7.3350   36.5710   55.8240 H       0  <0>0        0.1775
     16  C12        5.6420   36.0460   56.8450 C.2     0  <0>0        0.2303
     17  S1         4.3140   36.2380   55.6640 S.3     0  <0>0       -0.0364
     18  C18        2.9740   35.8670   56.7710 C.2     0  <0>0        0.0587
     19  C13        3.6490   35.6250   57.9900 C.2     0  <0>0        0.1391
     20  C17        1.6090   35.7950   56.6540 C.2     0  <0>0       -0.0123
     21  N3         4.9940   35.7350   57.9470 N.2     0  <0>0       -0.3787
     22  C14        2.8350   35.3000   59.1000 C.2     0  <0>0        0.0284
     23  C15        1.4730   35.2310   58.9730 C.2     0  <0>0       -0.0188
     24  C16        0.8440   35.4750   57.7600 C.3     0  <0>0        0.0527
@<TRIPOS>BOND
     1    17    18    1
     2    17    16    1
     3    15    14    1
     4    14    16    1
     5    14     2    1
     6    20    18    2
     7    20    24    1
     8    18    19    1
     9    16    21    2
    10     2     1    2
    11    24    23    1
    12    21    19    2
    13    19    22    1
    14     1     3    1
    15    23    22    2
    16     4     3   ar
    17     4     5   ar
    18     3     8   ar
    19     5     6   ar
    20     8     7   ar
    21     6     7   ar
    22     6     9    1
    23    10     9    1
    24    10    11    1
    25    12    11    1
    26    12    13    1
