@<TRIPOS>MOLECULE
ZINC66190213_replica-1.pdb
 26 27 0 0 0
SMALL
GASTEIGER

@<TRIPOS>ATOM
      1  C10       10.2090   36.5660   61.2370 C.3     0  <0>0        0.1085
      2  N1        10.2160   35.9170   59.9230 N.pl3   0  <0>0       -0.3313
      3  H12       10.9700   35.3670   59.6580 H       0  <0>0        0.1469
      4  C7         9.1370   36.0920   59.0510 C.ar    0  <0>0        0.0449
      5  C6         8.6740   35.0220   58.2960 C.ar    0  <0>0        0.0174
      6  C5         7.6070   35.1950   57.4360 C.ar    0  <0>0        0.0382
      7  C4         6.9980   36.4360   57.3250 C.ar    0  <0>0        0.1385
      8  C9         7.4640   37.5060   58.0740 C.ar    0  <0>0        0.0382
      9  C8         8.5260   37.3340   58.9400 C.ar    0  <0>0        0.0174
     10  O1         5.9480   36.6050   56.4780 O.3     0  <0>0       -0.4792
     11  C2         4.9430   35.5890   56.4780 C.3     0  <0>0        0.1661
     12  C1         3.9950   35.8100   57.6570 C.3     0  <0>0        0.0472
     13  C3         4.1540   35.6520   55.1700 C.3     0  <0>0        0.0472
     14  C11       11.2510   35.9010   62.1400 C.3     0  <0>0        0.1085
     15  N2        11.6670   34.6270   61.5490 N.pl3   0  <0>0       -0.3313
     16  H17       11.3250   34.3600   60.6800 H       0  <0>0        0.1469
     17  C12       12.5570   33.7970   62.2340 C.ar    0  <0>0        0.0446
     18  C17       12.1160   32.5910   62.7640 C.ar    0  <0>0        0.0181
     19  C16       13.0000   31.7700   63.4360 C.ar    0  <0>0        0.0726
     20  C15       14.3200   32.1520   63.5910 C.ar    0  <0>0        0.0039
     21  C14       14.7610   33.3550   63.0690 C.ar    0  <0>0        0.0012
     22  C13       13.8840   34.1780   62.3900 C.ar    0  <0>0        0.0143
     23  C18       12.5250   30.4580   64.0060 C.3     0  <0>0        0.4186
     24  F1        12.9990   30.3180   65.3150 F       0  <0>0       -0.1659
     25  F2        11.1260   30.4320   64.0120 F       0  <0>0       -0.1659
     26  F3        13.0070   29.4070   63.2200 F       0  <0>0       -0.1659
@<TRIPOS>BOND
     1    13    11    1
     2    10    11    1
     3    10     7    1
     4    11    12    1
     5     7     6   ar
     6     7     8   ar
     7     6     5   ar
     8     8     9   ar
     9     5     4   ar
    10     9     4   ar
    11     4     2    1
    12     3     2    1
    13     2     1    1
    14    16    15    1
    15     1    14    1
    16    15    14    1
    17    15    17    1
    18    17    22   ar
    19    17    18   ar
    20    22    21   ar
    21    18    19   ar
    22    21    20   ar
    23    26    23    1
    24    19    20   ar
    25    19    23    1
    26    23    25    1
    27    23    24    1
