@<TRIPOS>MOLECULE
ZINC47368721_replica-1.pdb
 21 23 0 0 0
SMALL
GASTEIGER

@<TRIPOS>ATOM
      1  N1         7.7600   36.7370   56.6520 N.am    0  <0>0       -0.2540
      2  C8         7.5450   37.9150   57.2960 C.3     0  <0>0        0.2218
      3  N2         8.0340   38.1870   58.4680 N.2     0  <0>0       -0.2515
      4  C9         8.8050   37.2970   59.1410 C.2     0  <0>0        0.0682
      5  C10        9.3300   37.5890   60.4020 C.2     0  <0>0        0.0160
      6  C11       10.1080   36.6570   61.0490 C.2     0  <0>0        0.0123
      7  C12       10.3800   35.4250   60.4640 C.2     0  <0>0        0.0543
      8  C13        9.8720   35.1140   59.2200 C.2     0  <0>0       -0.0000
      9  C14        9.0830   36.0450   58.5480 C.3     0  <0>0        0.1391
     10  C15        8.5100   35.7660   57.2230 C.2     0  <0>0        0.2366
     11  O1         8.7060   34.7050   56.6600 O.2     0  <0>0       -0.2741
     12 Cl         11.3650   34.2700   61.3060 Cl      0  <0>0       -0.0826
     13  C7         7.1700   36.5150   55.3300 C.3     0  <0>0        0.1220
     14  C6         5.8570   35.7900   55.4810 C.ar    0  <0>0       -0.0016
     15  C1         5.5060   34.8020   54.5810 C.ar    0  <0>0       -0.0003
     16  C2         4.3020   34.1370   54.7180 C.ar    0  <0>0        0.0299
     17  C3         3.4470   34.4600   55.7590 C.ar    0  <0>0        0.1462
     18  C4         3.8000   35.4500   56.6600 C.ar    0  <0>0        0.0617
     19  F1         2.2710   33.8100   55.8930 F       0  <0>0       -0.2037
     20  C5         5.0050   36.1140   56.5210 C.ar    0  <0>0        0.0063
     21 Br          2.6350   35.8950   58.0820 Br      0  <0>0       -0.0467
@<TRIPOS>BOND
     1    15    16   ar
     2    15    14   ar
     3    16    17   ar
     4    13    14    1
     5    13     1    1
     6    14    20   ar
     7    17    19    1
     8    17    18   ar
     9    20    18   ar
    10     1    10   am
    11     1     2    1
    12    18    21    1
    13    11    10    2
    14    10     9    1
    15     2     3    1
    16     3     4    2
    17     9     4    1
    18     9     8    1
    19     4     5    1
    20     8     7    2
    21     5     6    2
    22     7     6    1
    23     7    12    1
