@<TRIPOS>MOLECULE
ZINC06685231_replica-1.pdb
 23 25 0 0 0
SMALL
GASTEIGER

@<TRIPOS>ATOM
      1  N3         9.2470   34.3570   60.3750 N.pl3   0  <0>0       -0.1106
      2  H5         8.8570   35.1280   60.8180 H       0  <0>0        0.3271
      3  C6         8.8620   34.0330   59.0860 C.2     0  <0>0        0.3269
      4  C5         8.6280   35.0560   58.1250 C.3     0  <0>0        0.1717
      5  C2         8.7390   36.4970   58.2570 C.2     0  <0>0       -0.0246
      6  C4         8.2460   34.6040   56.8420 C.2     0  <0>0        0.1022
      7  C1         9.1440   37.1130   59.5720 C.3     0  <0>0        0.0275
      8  C3         8.4720   37.2750   57.1970 C.2     0  <0>0        0.0018
      9  S1         8.0510   36.1060   55.9190 S.3     0  <0>0       -0.0767
     10  C16        8.5170   38.7780   57.1090 C.3     0  <0>0        0.0376
     11  N2         8.1110   33.3200   56.5780 N.2     0  <0>0       -0.2156
     12  C7         8.3370   32.4180   57.5130 C.3     0  <0>0        0.3917
     13  N1         8.7020   32.7670   58.7330 N.2     0  <0>0       -0.0383
     14  N4        10.1990   33.5740   61.0400 N.2     0  <0>0       -0.0957
     15  C8        11.1320   34.1430   61.7410 C.2     0  <0>0        0.0994
     16  C9        11.1900   35.6460   61.8390 C.3     0  <0>0        0.0559
     17  C10       12.1340   33.3190   62.4410 C.ar    0  <0>0        0.0175
     18  C15       11.7900   32.0560   62.9260 C.ar    0  <0>0        0.0080
     19  C14       12.7350   31.2880   63.5760 C.ar    0  <0>0        0.0346
     20  C13       14.0190   31.7740   63.7570 C.ar    0  <0>0        0.0067
     21 Br         12.2740   29.5740   64.2270 Br      0  <0>0       -0.0490
     22  C12       14.3670   33.0240   63.2790 C.ar    0  <0>0        0.0005
     23  C11       13.4340   33.8000   62.6220 C.ar    0  <0>0        0.0013
@<TRIPOS>BOND
     1     9     6    1
     2     9     8    1
     3    11     6    2
     4    11    12    1
     5     6     4    1
     6    10     8    1
     7     8     5    2
     8    12    13    1
     9     4     5    1
    10     4     3    1
    11     5     7    1
    12    13     3    2
    13     3     1    1
    14     1     2    1
    15     1    14    1
    16    14    15    2
    17    15    16    1
    18    15    17    1
    19    17    23   ar
    20    17    18   ar
    21    23    22   ar
    22    18    19   ar
    23    22    20   ar
    24    19    20   ar
    25    19    21    1
