@<TRIPOS>MOLECULE
ZINC13258195_replica-1.pdb
 29 31 0 0 0
SMALL
GASTEIGER

@<TRIPOS>ATOM
      1  N1         6.7400   36.7840   58.2300 N.am    0  <0>0       -0.2986
      2  C11        5.6850   36.8200   59.0690 C.2     0  <0>0        0.2672
      3  O2         5.7480   37.4590   60.0970 O.2     0  <0>0       -0.2711
      4  H11        6.7160   36.2180   57.4440 H       0  <0>0        0.1498
      5  C12        4.4260   36.0660   58.7260 C.3     0  <0>0        0.2893
      6  O3         4.7660   34.7570   58.2620 O.3     0  <0>0       -0.4656
      7  C13        5.1620   33.8540   59.1950 C.ar    0  <0>0        0.1392
      8  C18        6.2900   33.0430   58.9630 C.ar    0  <0>0        0.0348
      9  C17        6.6870   32.1080   59.9510 C.ar    0  <0>0        0.0135
     10  C19        7.0300   33.1440   57.7740 C.ar    0  <0>0        0.0030
     11  C16        5.9480   32.0070   61.1430 C.ar    0  <0>0        0.0578
     12  C22        7.8130   31.2990   59.7210 C.ar    0  <0>0        0.0009
     13  C15        4.8620   32.8080   61.3350 C.ar    0  <0>0        0.0145
     14 Cl          6.4170   30.8680   62.3660 Cl      0  <0>0       -0.0822
     15  C14        4.4720   33.7310   60.3680 C.ar    0  <0>0        0.0378
     16  C21        8.5050   31.4240   58.5560 C.ar    0  <0>0        0.0000
     17  C20        8.1160   32.3440   57.5850 C.ar    0  <0>0        0.0001
     18  C8         7.9230   37.6020   58.5090 C.3     0  <0>0        0.1054
     19  C5         8.9050   36.8020   59.3250 C.ar    0  <0>0       -0.0040
     20  C4         9.3650   37.2970   60.5320 C.ar    0  <0>0       -0.0030
     21  C3        10.2650   36.5630   61.2810 C.ar    0  <0>0       -0.0045
     22  C2        10.7060   35.3360   60.8250 C.ar    0  <0>0       -0.0219
     23  C1        11.6890   34.5360   61.6420 C.3     0  <0>0        0.0310
     24  C7        10.2460   34.8400   59.6190 C.ar    0  <0>0       -0.0045
     25  C6         9.3420   35.5730   58.8710 C.ar    0  <0>0       -0.0030
     26  C9         8.5770   38.0190   57.1900 C.3     0  <0>0        0.1381
     27  C10        7.7970   37.4440   56.0370 C.2     0  <0>0        0.3669
     28  O1         6.8720   38.0630   55.5650 O.co2   0  <0>0       -0.2456
     29  O4         8.1270   36.2430   55.5360 O.co2   0  <0>0       -0.2456
@<TRIPOS>BOND
     1    29    27   ar
     2    28    27   ar
     3    27    26    1
     4    26    18    1
     5     4     1    1
     6    17    10   ar
     7    17    16   ar
     8    10     8   ar
     9     1    18    1
    10     1     2   am
    11     6     5    1
    12     6     7    1
    13    18    19    1
    14    16    12   ar
    15     5     2    1
    16    25    19   ar
    17    25    24   ar
    18     8     7   ar
    19     8     9   ar
    20     2     3    2
    21     7    15   ar
    22    19    20   ar
    23    24    22   ar
    24    12     9   ar
    25     9    11   ar
    26    15    13   ar
    27    20    21   ar
    28    22    21   ar
    29    22    23    1
    30    11    13   ar
    31    11    14    1
