@<TRIPOS>MOLECULE
ZINC21229582_replica-1.pdb
 34 38 0 0 0
SMALL
GASTEIGER

@<TRIPOS>ATOM
      1  C9        -0.2050   31.3870   58.2240 C.3     0  <0>0        0.1187
      2  C10       -0.2400   30.6040   56.9330 C.2     0  <0>0        0.0436
      3  C11        0.2990   30.9860   55.7640 C.2     0  <0>0        0.0262
      4  C12        0.2210   30.0770   54.5480 C.3     0  <0>0        0.0458
      5  C13       -1.0850   29.2840   54.5770 C.3     0  <0>0        0.0365
      6  C14       -1.0950   28.4480   55.8620 C.3     0  <0>0        0.0737
      7  C15       -0.9210   29.3670   57.0340 C.2     0  <0>0        0.1722
      8  O2        -1.3820   29.0380   58.1090 O.2     0  <0>0       -0.2916
      9  N1         0.9520   32.1570   55.5560 N.pl3   0  <0>0       -0.3150
     10  C22        1.9300   32.6800   56.3940 C.ar    0  <0>0        0.0614
     11  C23        3.2400   32.8530   55.9830 C.ar    0  <0>0        0.0158
     12  C24        4.1520   33.4340   56.8490 C.ar    0  <0>0        0.0014
     13  C25        3.7560   33.8360   58.1110 C.ar    0  <0>0        0.0013
     14  C26        2.4500   33.6490   58.5290 C.ar    0  <0>0        0.0156
     15  C27        1.5410   33.0530   57.6710 C.ar    0  <0>0        0.0586
     16  N2         0.2410   32.7570   58.0800 N.pl3   0  <0>0       -0.3262
     17  H20        0.7180   32.7670   54.6700 H       0  <0>0        0.1520
     18  H25       -0.4490   33.5860   58.2960 H       0  <0>0        0.1474
     19  C7         0.7160   30.6830   59.1860 C.ar    0  <0>0        0.0027
     20  C6         0.4810   30.7590   60.5470 C.ar    0  <0>0       -0.0022
     21  C5         1.3250   30.1150   61.4330 C.ar    0  <0>0        0.0029
     22  C4         2.4030   29.3910   60.9610 C.ar    0  <0>0        0.0369
     23  C3         2.6400   29.3130   59.5960 C.ar    0  <0>0        0.1383
     24  C8         1.7900   29.9580   58.7090 C.ar    0  <0>0        0.0345
     25  O1         3.7000   28.6020   59.1280 O.3     0  <0>0       -0.4755
     26  C2         5.0020   29.0570   59.5030 C.3     0  <0>0        0.2055
     27  C1         5.3730   30.2840   58.6680 C.3     0  <0>0        0.0512
     28  C16       -1.1580   28.3760   53.3770 C.ar    0  <0>0       -0.0111
     29  C21       -1.9600   28.7140   52.3010 C.ar    0  <0>0        0.0537
     30  C20       -2.0220   27.8820   51.1970 C.ar    0  <0>0        0.0111
     31 Cl         -2.8820   30.1850   52.3340 Cl      0  <0>0       -0.0826
     32  C19       -1.2930   26.7090   51.1740 C.ar    0  <0>0        0.0008
     33  C18       -0.4960   26.3700   52.2510 C.ar    0  <0>0       -0.0003
     34  C17       -0.4280   27.2020   53.3520 C.ar    0  <0>0       -0.0034
@<TRIPOS>BOND
     1    32    30   ar
     2    32    33   ar
     3    30    29   ar
     4    33    34   ar
     5    29    31    1
     6    29    28   ar
     7    34    28   ar
     8    28     5    1
     9     4     5    1
    10     4     3    1
    11     5     6    1
    12    17     9    1
    13     9     3    1
    14     9    10    1
    15     3     2    2
    16     6     7    1
    17    11    10   ar
    18    11    12   ar
    19    10    15   ar
    20    12    13   ar
    21     2     7    1
    22     2     1    1
    23     7     8    2
    24    15    16    1
    25    15    14   ar
    26    16     1    1
    27    16    18    1
    28    13    14   ar
    29     1    19    1
    30    27    26    1
    31    24    19   ar
    32    24    23   ar
    33    25    26    1
    34    25    23    1
    35    19    20   ar
    36    23    22   ar
    37    20    21   ar
    38    22    21   ar
