@<TRIPOS>MOLECULE
ZINC60953417_replica-1.pdb
 28 30 0 0 0
SMALL
GASTEIGER

@<TRIPOS>ATOM
      1  C11        1.8410   32.4320   56.2980 C.3     0  <0>0        0.1369
      2  C10        0.6630   31.5270   56.0400 C.2     0  <0>0        0.2267
      3  N1         0.7640   30.5300   55.1390 N.am    0  <0>0       -0.3039
      4  H12        1.5940   30.3940   54.6570 H       0  <0>0        0.1494
      5  O1        -0.3760   31.6970   56.6440 O.2     0  <0>0       -0.2750
      6  C9        -0.3810   29.6510   54.8880 C.3     0  <0>0        0.0940
      7  C8         0.0840   28.1930   54.8970 C.3     0  <0>0        0.0473
      8  C7        -0.3670   27.5150   53.6290 C.ar    0  <0>0       -0.0244
      9  C2        -0.1000   26.1740   53.4310 C.ar    0  <0>0       -0.0257
     10  C1         0.6420   25.3890   54.4820 C.3     0  <0>0        0.0307
     11  C3        -0.5200   25.5500   52.2700 C.ar    0  <0>0       -0.0046
     12  C4        -1.2010   26.2690   51.3060 C.ar    0  <0>0       -0.0003
     13  C5        -1.4630   27.6130   51.5020 C.ar    0  <0>0       -0.0003
     14  C6        -1.0450   28.2350   52.6630 C.ar    0  <0>0       -0.0045
     15  C12        1.3470   33.7590   56.8760 C.3     0  <0>0        0.2275
     16  N2         2.4470   34.4230   57.5820 N.am    0  <0>0       -0.1145
     17  C14        3.4890   35.1080   57.0270 C.1     0  <0>0        0.1797
     18  N4         4.2410   35.5410   58.0140 N.2     0  <0>0        0.0474
     19  S1         3.7730   35.3660   55.3070 S.2     0  <0>0        0.0561
     20  N3         3.7460   35.1700   59.1410 N.2     0  <0>0        0.0925
     21  C13        2.6460   34.4810   58.9430 C.2     0  <0>0        0.3639
     22  C15        1.7860   33.8810   59.9830 C.ar    0  <0>0        0.0858
     23  C20        2.1340   32.6610   60.5640 C.ar    0  <0>0        0.0098
     24  C19        1.3300   32.1080   61.5380 C.ar    0  <0>0        0.0299
     25  C18        0.1720   32.7580   61.9340 C.ar    0  <0>0        0.1402
     26  C17       -0.1820   33.9670   61.3580 C.ar    0  <0>0        0.0299
     27  F1        -0.6160   32.2100   62.8860 F       0  <0>0       -0.2042
     28  C16        0.6180   34.5320   60.3870 C.ar    0  <0>0        0.0098
@<TRIPOS>BOND
     1    12    13   ar
     2    12    11   ar
     3    13    14   ar
     4    11     9   ar
     5    14     8   ar
     6     9     8   ar
     7     9    10    1
     8     8     7    1
     9     4     3    1
    10     6     7    1
    11     6     3    1
    12     3     2   am
    13    19    17    2
    14     2     1    1
    15     2     5    2
    16     1    15    1
    17    15    16    1
    18    17    16    1
    19    17    18    2
    20    16    21    1
    21    18    20    1
    22    21    20    2
    23    21    22    1
    24    22    28   ar
    25    22    23   ar
    26    28    26   ar
    27    23    24   ar
    28    26    25   ar
    29    24    25   ar
    30    25    27    1
