@<TRIPOS>MOLECULE
ZINC04698343_replica-1.pdb
 27 28 0 0 0
SMALL
GASTEIGER

@<TRIPOS>ATOM
      1  C11        8.0990   37.0070   58.9350 C.3     0  <0>0        0.1089
      2  C8         9.1410   36.3580   59.8080 C.ar    0  <0>0       -0.0059
      3  C7         9.5300   36.9650   60.9870 C.ar    0  <0>0       -0.0032
      4  C6        10.4850   36.3700   61.7900 C.ar    0  <0>0       -0.0046
      5  C5        11.0510   35.1660   61.4130 C.ar    0  <0>0       -0.0228
      6  C10       10.6620   34.5580   60.2340 C.ar    0  <0>0       -0.0046
      7  C9         9.7030   35.1510   59.4340 C.ar    0  <0>0       -0.0032
      8  C2        12.0920   34.5160   62.2870 C.3     0  <0>0        0.0189
      9  C1        12.2670   35.3370   63.5670 C.3     0  <0>0        0.0044
     10  C3        11.6440   33.0980   62.6470 C.3     0  <0>0        0.0044
     11  C4        13.4230   34.4530   61.5350 C.3     0  <0>0        0.0044
     12  C12        8.7740   37.6160   57.7030 C.3     0  <0>0        0.1358
     13  C13        8.0500   37.1670   56.4600 C.2     0  <0>0        0.3666
     14  O1         8.4180   36.1790   55.8690 O.co2   0  <0>0       -0.2456
     15  O4         6.9940   37.8630   56.0100 O.co2   0  <0>0       -0.2456
     16  N1         7.1220   36.0010   58.5090 N.3     0  <0>0       -0.1761
     17  H17        7.1550   35.6450   57.6070 H       0  <0>0        0.1491
     18  S1         5.9630   35.4740   59.5670 S.O2    0  <0>0        0.0605
     19  O2         6.2150   34.0920   59.7890 O.2     0  <0>0       -0.1530
     20  O3         5.9200   36.4190   60.6270 O.2     0  <0>0       -0.1530
     21  C14        4.4120   35.5760   58.7370 C.ar    0  <0>0        0.1220
     22  C19        4.3640   35.9640   57.4100 C.ar    0  <0>0        0.0208
     23  C18        3.1470   36.0440   56.7590 C.ar    0  <0>0        0.0128
     24  C17        1.9800   35.7380   57.4340 C.ar    0  <0>0        0.0578
     25  C16        2.0300   35.3510   58.7610 C.ar    0  <0>0        0.0128
     26 Cl          0.4520   35.8400   56.6160 Cl      0  <0>0       -0.0822
     27  C15        3.2470   35.2650   59.4110 C.ar    0  <0>0        0.0208
@<TRIPOS>BOND
     1    14    13   ar
     2    15    13   ar
     3    13    12    1
     4    26    24    1
     5    23    22   ar
     6    23    24   ar
     7    22    21   ar
     8    24    25   ar
     9    17    16    1
    10    12     1    1
    11    16     1    1
    12    16    18    1
    13    21    27   ar
    14    21    18    1
    15    25    27   ar
    16     1     2    1
    17     7     2   ar
    18     7     6   ar
    19    18    19    2
    20    18    20    2
    21     2     3   ar
    22     6     5   ar
    23     3     4   ar
    24     5     4   ar
    25     5     8    1
    26    11     8    1
    27     8    10    1
    28     8     9    1
