@<TRIPOS>MOLECULE
ZINC54598019_replica-1.pdb
 22 24 0 0 0
SMALL
GASTEIGER

@<TRIPOS>ATOM
      1  C6        -1.2610   30.8310   55.8240 C.3     0  <0>0       -0.0173
      2  C7        -2.3370   29.8930   56.3760 C.3     0  <0>0        0.0022
      3  C8        -0.9500   29.3500   56.0320 C.3     0  <0>0        0.0166
      4  C9        -0.0250   28.9720   57.1940 C.3     0  <0>0        0.0043
      5  C10       -0.0810   27.4470   57.3550 C.3     0  <0>0        0.0050
      6  C11        0.5270   26.7930   56.1180 C.3     0  <0>0        0.0261
      7  C12       -0.1330   27.2840   54.8570 C.ar    0  <0>0       -0.0231
      8  C13       -0.8200   28.4800   54.8080 C.ar    0  <0>0       -0.0266
      9  C14       -1.4060   28.8990   53.6250 C.ar    0  <0>0       -0.0015
     10  C15       -1.3100   28.1220   52.4870 C.ar    0  <0>0        0.0366
     11  C16       -0.6250   26.9170   52.5330 C.ar    0  <0>0        0.1384
     12  C17       -0.0390   26.5010   53.7170 C.ar    0  <0>0        0.0323
     13  C5        -0.6290   31.8300   56.7960 C.3     0  <0>0       -0.0813
     14  N1         0.2440   32.7490   56.0530 N.4     0  <0>0        0.3838
     15  H11       -0.3190   33.4340   55.5720 H       0  <0>0       -0.0845
     16  H28        0.7860   32.2270   55.3810 H       0  <0>0       -0.0845
     17  C4         1.1490   33.4290   56.9890 C.3     0  <0>0       -0.0817
     18  C2         0.3930   34.5490   57.7070 C.3     0  <0>0       -0.0213
     19  C1         0.7070   34.5000   59.2030 C.3     0  <0>0       -0.0022
     20  C3         0.8260   35.9020   57.1380 C.3     0  <0>0       -0.0022
     21  O1        -0.5300   26.1450   51.4180 O.3     0  <0>0       -0.4714
     22  C18       -0.5080   24.7300   51.6070 C.3     0  <0>0        0.2525
@<TRIPOS>BOND
     1    21    22    1
     2    21    11    1
     3    10    11   ar
     4    10     9   ar
     5    11    12   ar
     6     9     8   ar
     7    12     7   ar
     8     8     7   ar
     9     8     3    1
    10     7     6    1
    11    16    14    1
    12    15    14    1
    13     1     3    1
    14     1     2    1
    15     1    13    1
    16     3     2    1
    17     3     4    1
    18    14    13    1
    19    14    17    1
    20     6     5    1
    21    17    18    1
    22    20    18    1
    23     4     5    1
    24    18    19    1
