@<TRIPOS>MOLECULE
ZINC57632881_replica-1.pdb
 24 24 0 0 0
SMALL
GASTEIGER

@<TRIPOS>ATOM
      1  C1         8.7110   37.0790   61.7390 C.3     0  <0>0        0.0217
      2  C2         8.6680   35.6970   61.0840 C.3     0  <0>0        0.1280
      3  C3         7.5230   35.6380   60.1080 C.2     0  <0>0        0.2324
      4  O1         6.5050   36.2600   60.3280 O.2     0  <0>0       -0.2742
      5  N1         7.6290   34.8940   58.9890 N.am    0  <0>0       -0.3068
      6  H5         8.4430   34.3960   58.8130 H       0  <0>0        0.1493
      7  C4         6.5160   34.8360   58.0390 C.3     0  <0>0        0.0568
      8  C5         6.7130   33.6480   57.0950 C.3     0  <0>0        0.0196
      9  C6         5.2000   34.6690   58.8030 C.3     0  <0>0        0.0196
     10  C7         6.4720   36.1320   57.2250 C.3     0  <0>0        0.0180
     11  C8         7.8070   36.3250   56.5040 C.3     0  <0>0        0.0015
     12  C9         8.6600   35.0650   56.6630 C.3     0  <0>0        0.0001
     13  C10        7.5500   36.5830   55.0170 C.3     0  <0>0        0.0001
     14  C11        8.5450   37.5210   57.1090 C.3     0  <0>0        0.0001
     15  S1        10.2280   35.3960   60.2060 S.3     0  <0>0       -0.1053
     16  C12       11.1080   34.2960   61.2650 C.ar    0  <0>0        0.0257
     17  C17       12.4010   34.6040   61.6690 C.ar    0  <0>0        0.0079
     18  C16       13.0850   33.7430   62.5040 C.ar    0  <0>0        0.0246
     19  C15       12.4900   32.5690   62.9270 C.ar    0  <0>0        0.1429
     20  C14       11.2040   32.2560   62.5220 C.ar    0  <0>0        0.0246
     21  C13       10.5120   33.1160   61.6920 C.ar    0  <0>0        0.0079
     22  N2        13.2290   31.6450   63.8160 N.pl3   0  <0>0        0.0577
     23  O2        14.3950   31.8490   64.0640 O.2     0  <0>0       -0.1261
     24  O3        12.6680   30.6870   64.2940 O.2     0  <0>0       -0.1261
@<TRIPOS>BOND
     1    13    11    1
     2    11    12    1
     3    11    14    1
     4    11    10    1
     5     8     7    1
     6    10     7    1
     7     7     9    1
     8     7     5    1
     9     6     5    1
    10     5     3   am
    11     3     4    2
    12     3     2    1
    13    15     2    1
    14    15    16    1
    15     2     1    1
    16    16    17   ar
    17    16    21   ar
    18    17    18   ar
    19    21    20   ar
    20    18    19   ar
    21    20    19   ar
    22    19    22    1
    23    22    23    2
    24    22    24    2
