@<TRIPOS>MOLECULE
ZINC05688730_replica-1.pdb
 30 33 0 0 0
SMALL
GASTEIGER

@<TRIPOS>ATOM
      1  C17        7.2220   32.4110   58.0240 C.2     0  <0>0        0.1073
      2  C18        8.0230   31.4890   58.6660 C.2     0  <0>0        0.0135
      3  C25        5.8340   32.1320   57.8190 C.1     0  <0>0        0.1037
      4  N2         4.7310   31.9120   57.6550 N.1     0  <0>0       -0.1907
      5  C16        7.7980   33.6810   57.5510 C.2     0  <0>0        0.2066
      6  O1         8.2430   33.7650   56.4200 O.2     0  <0>0       -0.2858
      7  C8         7.8340   34.8450   58.4410 C.ar    0  <0>0        0.0568
      8  C7         8.8900   35.1840   59.4110 C.ar    0  <0>0        0.0203
      9  C2         8.4880   36.3810   60.0260 C.ar    0  <0>0        0.0600
     10  C6        10.0900   34.5780   59.7780 C.ar    0  <0>0        0.0016
     11  N1         7.2760   36.7540   59.4800 N.ar    0  <0>0       -0.3251
     12  C3         9.3000   36.9510   61.0020 C.ar    0  <0>0        0.0172
     13  C1         6.5230   37.9530   59.8570 C.3     0  <0>0        0.1304
     14  C9         6.8770   35.8470   58.5420 C.ar    0  <0>0        0.0630
     15  C4        10.4840   36.3420   61.3540 C.ar    0  <0>0        0.0015
     16  C5        10.8800   35.1590   60.7460 C.ar    0  <0>0        0.0001
     17  C10        5.6290   35.9210   57.7580 C.ar    0  <0>0        0.0159
     18  C15        4.4060   35.6000   58.3530 C.ar    0  <0>0        0.0014
     19  C14        3.2430   35.6720   57.6140 C.ar    0  <0>0        0.0000
     20  C13        3.2860   36.0600   56.2870 C.ar    0  <0>0        0.0000
     21  C12        4.4940   36.3790   55.6910 C.ar    0  <0>0        0.0000
     22  C11        5.6640   36.3180   56.4190 C.ar    0  <0>0        0.0014
     23  C19        7.4260   30.2960   59.2690 C.ar    0  <0>0        0.0010
     24  C24        7.1530   30.2640   60.6440 C.ar    0  <0>0        0.0031
     25  C23        6.5960   29.1490   61.2020 C.ar    0  <0>0        0.0366
     26  C22        6.2970   28.0470   60.4070 C.ar    0  <0>0        0.1337
     27  C21        6.5640   28.0720   59.0420 C.ar    0  <0>0        0.0366
     28  C20        7.1180   29.1840   58.4730 C.ar    0  <0>0        0.0031
     29  O2         5.7430   26.9410   60.9670 O.3     0  <0>0       -0.5055
     30  H18        5.3280   26.3430   60.3300 H       0  <0>0        0.2922
@<TRIPOS>BOND
     1    21    20   ar
     2    21    22   ar
     3    20    19   ar
     4    22    17   ar
     5     6     5    2
     6     5     1    1
     7     5     7    1
     8    19    18   ar
     9     4     3    3
    10    17    18   ar
    11    17    14    1
    12     3     1    1
    13     1     2    2
    14     7    14   ar
    15     7     8   ar
    16    28    27   ar
    17    28    23   ar
    18    14    11   ar
    19     2    23    1
    20    27    26   ar
    21    23    24   ar
    22     8    10   ar
    23     8     9   ar
    24    11    13    1
    25    11     9   ar
    26    10    16   ar
    27     9    12   ar
    28    30    29    1
    29    26    29    1
    30    26    25   ar
    31    24    25   ar
    32    16    15   ar
    33    12    15   ar
