@<TRIPOS>MOLECULE
ZINC13198675_replica-1.pdb
 26 27 0 0 0
SMALL
GASTEIGER

@<TRIPOS>ATOM
      1  N1         0.6240   33.6780   56.2910 N.3     0  <0>0       -0.1785
      2  H11        0.3240   33.8140   55.3800 H       0  <0>0        0.1488
      3  C9         0.9160   32.3230   56.7700 C.3     0  <0>0        0.1031
      4  C8        -0.3110   31.4330   56.5630 C.3     0  <0>0        0.0767
      5  S1        -0.3300   30.8160   54.8580 S.3     0  <0>0       -0.1339
      6  C7        -1.5280   29.4540   54.8980 C.3     0  <0>0        0.0860
      7  C5        -1.2440   28.5010   53.7650 C.ar    0  <0>0        0.0161
      8  C4        -1.7920   28.7280   52.5150 C.ar    0  <0>0        0.1370
      9  C3        -1.5300   27.8520   51.4760 C.ar    0  <0>0        0.0293
     10  F1        -2.5820   29.8050   52.3080 F       0  <0>0       -0.2045
     11  C2        -0.7220   26.7520   51.6870 C.ar    0  <0>0        0.0023
     12  C1        -0.1740   26.5250   52.9370 C.ar    0  <0>0       -0.0002
     13  C6        -0.4310   27.4030   53.9740 C.ar    0  <0>0       -0.0012
     14  S2         0.8090   34.9720   57.3070 S.O2    0  <0>0        0.0602
     15  O1         0.1270   36.0620   56.7020 O.2     0  <0>0       -0.1530
     16  O2         0.4990   34.5100   58.6140 O.2     0  <0>0       -0.1530
     17  C10        2.5200   35.3900   57.3120 C.ar    0  <0>0        0.1222
     18  C15        3.1690   35.6180   58.5070 C.ar    0  <0>0        0.0273
     19  C14        4.5260   35.9480   58.5100 C.ar    0  <0>0        0.0916
     20  C13        5.2180   36.0440   57.3000 C.ar    0  <0>0        0.0641
     21  C12        4.5540   35.8130   56.1100 C.ar    0  <0>0        0.0130
     22 Cl          6.9040   36.4550   57.2900 Cl      0  <0>0       -0.0820
     23  C11        3.2120   35.4810   56.1160 C.ar    0  <0>0        0.0208
     24  C16        5.2260   36.1940   59.7860 C.2     0  <0>0        0.3886
     25  O3         5.4790   35.2660   60.5290 O.co2   0  <0>0       -0.2405
     26  O4         5.5860   37.4460   60.1260 O.co2   0  <0>0       -0.2405
@<TRIPOS>BOND
     1     9    11   ar
     2     9     8   ar
     3    11    12   ar
     4    10     8    1
     5     8     7   ar
     6    12    13   ar
     7     7    13   ar
     8     7     6    1
     9     5     6    1
    10     5     4    1
    11     2     1    1
    12    21    23   ar
    13    21    20   ar
    14    23    17   ar
    15     1     3    1
    16     1    14    1
    17     4     3    1
    18    15    14    2
    19    22    20    1
    20    20    19   ar
    21    14    17    1
    22    14    16    2
    23    17    18   ar
    24    18    19   ar
    25    19    24    1
    26    24    26   ar
    27    24    25   ar
