@<TRIPOS>MOLECULE
ZINC58901308_replica-1.pdb
 24 24 0 0 0
SMALL
GASTEIGER

@<TRIPOS>ATOM
      1  C4         8.9430   36.3750   58.9580 C.ar    0  <0>0       -0.0263
      2  C5         9.8000   36.2100   60.0260 C.ar    0  <0>0       -0.0001
      3  C6        10.2020   34.9280   60.4030 C.ar    0  <0>0        0.0527
      4  C7         9.7340   33.8200   59.6930 C.ar    0  <0>0       -0.0001
      5  C8         8.8770   33.9990   58.6270 C.ar    0  <0>0       -0.0263
      6  C9         8.4770   35.2720   58.2630 C.ar    0  <0>0       -0.0301
      7  C16       11.1210   34.7430   61.5460 C.2     0  <0>0        0.2458
      8  O1        11.4830   35.7040   62.1950 O.2     0  <0>0       -0.2701
      9  N1        11.5570   33.5080   61.8670 N.am    0  <0>0       -0.3025
     10  H25       11.2680   32.7420   61.3490 H       0  <0>0        0.1497
     11  C17       12.4680   33.3260   63.0000 C.3     0  <0>0        0.0719
     12  C18       12.3980   31.8760   63.4820 C.3     0  <0>0        0.0213
     13  C19       13.8980   33.6500   62.5630 C.3     0  <0>0        0.0196
     14  C20       14.8820   33.1380   63.6160 C.3     0  <0>0        0.0017
     15  C21       16.0410   34.1270   63.7540 C.3     0  <0>0        0.0001
     16  C3         8.5070   37.7590   58.5510 C.3     0  <0>0        0.0260
     17  C2         7.7290   38.4070   59.6980 C.3     0  <0>0        0.0047
     18  C1         6.3730   37.7170   59.8500 C.3     0  <0>0        0.0004
     19  C13        8.3690   32.8050   57.8620 C.3     0  <0>0        0.0260
     20  C14        7.3940   32.0160   58.7370 C.3     0  <0>0        0.0047
     21  C15        7.8580   30.5620   58.8360 C.3     0  <0>0        0.0004
     22  C10        7.5370   35.4610   57.1010 C.3     0  <0>0        0.0257
     23  C11        8.3430   35.7570   55.8350 C.3     0  <0>0        0.0047
     24  C12        7.5410   36.6900   54.9250 C.3     0  <0>0        0.0004
@<TRIPOS>BOND
     1    24    23    1
     2    23    22    1
     3    22     6    1
     4    19     5    1
     5    19    20    1
     6     6     5   ar
     7     6     1   ar
     8    16     1    1
     9    16    17    1
    10     5     4   ar
    11    20    21    1
    12     1     2   ar
    13     4     3   ar
    14    17    18    1
    15     2     3   ar
    16     3     7    1
    17    10     9    1
    18     7     9   am
    19     7     8    2
    20     9    11    1
    21    13    11    1
    22    13    14    1
    23    11    12    1
    24    14    15    1
