@<TRIPOS>MOLECULE
ZINC49409471_replica-1.pdb
 29 30 0 0 0
SMALL
GASTEIGER

@<TRIPOS>ATOM
      1  C12        0.9240   31.7210   55.9490 C.2     0  <0>0        0.2670
      2  O2        -0.1480   32.2610   56.1190 O.2     0  <0>0       -0.2711
      3  N1         1.0020   30.5940   55.2130 N.am    0  <0>0       -0.3031
      4  H17        1.8590   30.1620   55.0770 H       0  <0>0        0.1495
      5  C13       -0.2090   30.0240   54.6170 C.3     0  <0>0        0.0730
      6  C14       -0.2480   28.5170   54.8840 C.3     0  <0>0       -0.0141
      7  C15       -0.6030   27.7910   53.6120 C.ar    0  <0>0       -0.0293
      8  C20       -0.2000   26.4800   53.4280 C.ar    0  <0>0        0.0518
      9  C19       -0.5310   25.8120   52.2630 C.ar    0  <0>0        0.0110
     10 Cl          0.7130   25.6710   54.6640 Cl      0  <0>0       -0.0826
     11  C18       -1.2530   26.4580   51.2780 C.ar    0  <0>0        0.0008
     12  C17       -1.6500   27.7700   51.4590 C.ar    0  <0>0       -0.0003
     13  C16       -1.3250   28.4360   52.6260 C.ar    0  <0>0       -0.0054
     14  N2        -1.2580   28.2280   55.9110 N.4     0  <0>0        0.3891
     15  C21       -0.5980   28.0560   57.2110 C.3     0  <0>0       -0.1001
     16  C22       -2.2120   29.3430   55.9880 C.3     0  <0>0       -0.1001
     17  H30       -1.7500   27.3810   55.6690 H       0  <0>0       -0.0793
     18  C11        2.1700   32.3070   56.5630 C.3     0  <0>0        0.2893
     19  O1         2.2490   33.6980   56.2430 O.3     0  <0>0       -0.4656
     20  C8         3.4750   34.2780   56.3140 C.ar    0  <0>0        0.1393
     21  C7         4.5570   33.5590   56.8010 C.ar    0  <0>0        0.0366
     22  C6         5.8020   34.1510   56.8720 C.ar    0  <0>0       -0.0012
     23  C5         5.9720   35.4600   56.4570 C.ar    0  <0>0       -0.0226
     24  C10        4.8940   36.1800   55.9770 C.ar    0  <0>0       -0.0012
     25  C9         3.6480   35.5910   55.8990 C.ar    0  <0>0        0.0366
     26  C2         7.3320   36.1030   56.5350 C.3     0  <0>0        0.0189
     27  C1         7.5650   36.9580   55.2880 C.3     0  <0>0        0.0044
     28  C3         8.4070   35.0170   56.6170 C.3     0  <0>0        0.0044
     29  C4         7.4070   36.9880   57.7820 C.3     0  <0>0        0.0044
@<TRIPOS>BOND
     1    11    12   ar
     2    11     9   ar
     3    12    13   ar
     4     9     8   ar
     5    13     7   ar
     6     8     7   ar
     7     8    10    1
     8     7     6    1
     9     5     6    1
    10     5     3    1
    11     6    14    1
    12     4     3    1
    13     3     1   am
    14    27    26    1
    15    17    14    1
    16    25    24   ar
    17    25    20   ar
    18    14    16    1
    19    14    15    1
    20     1     2    2
    21     1    18    1
    22    24    23   ar
    23    19    20    1
    24    19    18    1
    25    20    21   ar
    26    23    26    1
    27    23    22   ar
    28    26    28    1
    29    26    29    1
    30    21    22   ar
