@<TRIPOS>MOLECULE
ZINC39945870_replica-1.pdb
 28 30 0 0 0
SMALL
GASTEIGER

@<TRIPOS>ATOM
      1  C8        -0.4900   28.8100   53.9990 C.3     0  <0>0        0.0649
      2  C9        -0.7840   27.8540   53.0280 C.ar    0  <0>0       -0.0060
      3  C10       -1.5280   27.9100   51.8290 C.ar    0  <0>0       -0.0030
      4  C11       -1.6520   26.7970   51.0620 C.ar    0  <0>0       -0.0002
      5  C12       -1.0590   25.5850   51.4270 C.ar    0  <0>0        0.0012
      6  C13       -0.3320   25.4590   52.5640 C.ar    0  <0>0        0.0140
      7  C14       -0.1580   26.5790   53.4180 C.ar    0  <0>0        0.0409
      8  N4         0.4910   26.7150   54.5570 N.pl3   0  <0>0       -0.3306
      9  C15        0.3590   28.0970   55.0280 C.3     0  <0>0        0.0974
     10  H25        0.9800   26.0110   55.0110 H       0  <0>0        0.1471
     11  C7        -0.8900   30.1520   54.0140 C.3     0  <0>0        0.1180
     12  N3        -0.1670   31.0440   54.6450 N.3     0  <0>0       -0.1283
     13  N2        -0.6330   31.6060   55.8410 N.am    0  <0>0       -0.2171
     14  C6        -1.9980   31.3300   56.2960 C.3     0  <0>0        0.1350
     15  C5         0.1750   32.3990   56.5720 C.2     0  <0>0        0.1493
     16  S1         1.8750   32.2710   56.4110 S.2     0  <0>0       -0.0174
     17  N1        -0.3560   33.2930   57.4290 N.am    0  <0>0       -0.3150
     18  H11       -1.1970   33.1000   57.8740 H       0  <0>0        0.1485
     19  C4         0.3360   34.5580   57.6900 C.3     0  <0>0        0.0884
     20  C3         0.8110   34.5900   59.1430 C.3     0  <0>0        0.0212
     21  C2         2.2420   35.1290   59.2010 C.3     0  <0>0        0.0017
     22  C1         2.5230   35.9660   57.9510 C.3     0  <0>0        0.0001
     23  C16       -0.3240   28.1210   56.3710 C.ar    0  <0>0       -0.0042
     24  C21        0.3600   28.5660   57.4860 C.ar    0  <0>0       -0.0027
     25  C20       -0.2680   28.5920   58.7180 C.ar    0  <0>0       -0.0003
     26  C19       -1.5780   28.1650   58.8350 C.ar    0  <0>0       -0.0000
     27  C18       -2.2600   27.7160   57.7200 C.ar    0  <0>0       -0.0003
     28  C17       -1.6340   27.6930   56.4880 C.ar    0  <0>0       -0.0027
@<TRIPOS>BOND
     1     4     5   ar
     2     4     3   ar
     3     5     6   ar
     4     3     2   ar
     5     6     7   ar
     6     2     7   ar
     7     2     1    1
     8     7     8    1
     9     1    11    1
    10     1     9    1
    11    11    12    1
    12     8    10    1
    13     8     9    1
    14    12    13    1
    15     9    23    1
    16    13    14    1
    17    13    15    1
    18    23    28   ar
    19    23    24   ar
    20    16    15    2
    21    28    27   ar
    22    15    17    1
    23    17    19    1
    24    17    18    1
    25    24    25   ar
    26    19    20    1
    27    27    26   ar
    28    22    21    1
    29    25    26   ar
    30    20    21    1
