@<TRIPOS>MOLECULE
ZINC04970169_replica-1.pdb
 28 32 0 0 0
SMALL
GASTEIGER

@<TRIPOS>ATOM
      1  C7        10.8070   33.1830   61.7160 C.ar    0  <0>0        0.1042
      2  C8        10.4280   34.5480   61.3460 C.ar    0  <0>0        0.0562
      3  C9        10.9890   35.8160   61.5660 C.ar    0  <0>0        0.1018
      4  N1        10.4190   36.9000   61.1060 N.ar    0  <0>0       -0.2436
      5  C10        9.2750   36.8650   60.4070 C.ar    0  <0>0        0.0851
      6  C11        8.6920   38.0490   59.9310 C.ar    0  <0>0        0.0511
      7  C12        7.5280   37.9970   59.2220 C.ar    0  <0>0        0.1689
      8  C13        6.9010   36.7770   58.9600 C.ar    0  <0>0        0.1675
      9  C14        7.4420   35.6080   59.4100 C.ar    0  <0>0        0.0350
     10  C15        8.6370   35.6300   60.1400 C.ar    0  <0>0        0.0378
     11  C16        9.2300   34.4390   60.6220 C.ar    0  <0>0        0.0872
     12  N2         8.9130   33.1160   60.5610 N.ar    0  <0>0       -0.2296
     13  N3         9.8870   32.3750   61.2410 N.ar    0  <0>0       -0.1651
     14  F2         5.7490   36.7540   58.2550 F       0  <0>0       -0.2018
     15  F3         6.9730   39.1420   58.7670 F       0  <0>0       -0.2017
     16  C17        7.7870   32.5810   59.9240 C.ar    0  <0>0        0.0829
     17  C22        6.5980   32.4290   60.6250 C.ar    0  <0>0        0.0215
     18  C21        5.4880   31.9020   59.9950 C.ar    0  <0>0        0.0312
     19  C20        5.5610   31.5240   58.6640 C.ar    0  <0>0        0.1402
     20  C19        6.7440   31.6800   57.9620 C.ar    0  <0>0        0.0312
     21  F1         4.4740   31.0090   58.0490 F       0  <0>0       -0.2042
     22  C18        7.8580   32.2010   58.5900 C.ar    0  <0>0        0.0215
     23  C4        12.0070   32.7850   62.4910 C.ar    0  <0>0        0.0194
     24  C3        13.1190   33.6250   62.5390 C.ar    0  <0>0        0.0016
     25  C2        14.2330   33.2500   63.2610 C.ar    0  <0>0        0.0000
     26  C1        14.2470   32.0430   63.9380 C.ar    0  <0>0        0.0000
     27  C6        13.1470   31.2050   63.8930 C.ar    0  <0>0        0.0000
     28  C5        12.0250   31.5720   63.1790 C.ar    0  <0>0        0.0016
@<TRIPOS>BOND
     1    20    22   ar
     2    20    19   ar
     3    21    19    1
     4    14     8    1
     5    22    16   ar
     6    19    18   ar
     7    15     7    1
     8     8     7   ar
     9     8     9   ar
    10     7     6   ar
    11     9    10   ar
    12    16    12    1
    13    16    17   ar
    14     6     5   ar
    15    18    17   ar
    16    10     5   ar
    17    10    11   ar
    18     5     4   ar
    19    12    11   ar
    20    12    13   ar
    21    11     2   ar
    22     4     3   ar
    23    13     1   ar
    24     2     3   ar
    25     2     1   ar
    26     1    23    1
    27    23    24   ar
    28    23    28   ar
    29    24    25   ar
    30    28    27   ar
    31    25    26   ar
    32    27    26   ar
