@<TRIPOS>MOLECULE
ZINC23447294_replica-1.pdb
 29 32 0 0 0
SMALL
GASTEIGER

@<TRIPOS>ATOM
      1  N2         8.7130   33.9310   59.0130 N.am    0  <0>0       -0.2624
      2  C17        8.0930   32.8940   58.4140 C.2     0  <0>0        0.2518
      3  O2         8.2420   32.7030   57.2220 O.2     0  <0>0       -0.2698
      4  C9         8.5650   34.1380   60.4560 C.3     0  <0>0        0.1942
      5  C8         9.8530   33.7780   61.1500 C.2     0  <0>0        0.2777
      6  N1        10.8800   34.5660   61.2630 N.2     0  <0>0       -0.3707
      7  C6        11.8590   33.9140   61.9470 C.2     0  <0>0        0.1505
      8  C5        11.3520   32.6410   62.2540 C.2     0  <0>0        0.1735
      9  C7        13.1490   34.2600   62.3530 C.3     0  <0>0        0.0843
     10  C4        12.1340   31.7380   62.9570 C.2     0  <0>0        0.0393
     11  O1        10.1020   32.5990   61.7400 O.2     0  <0>0       -0.4270
     12  C3        13.4070   32.0930   63.3510 C.2     0  <0>0       -0.0049
     13  C2        13.9120   33.3500   63.0510 C.2     0  <0>0       -0.0367
     14  C1        15.3040   33.7220   63.4900 C.3     0  <0>0        0.0268
     15  C10        9.5340   34.8500   58.2210 C.3     0  <0>0        0.1218
     16  C11        8.9220   36.2260   58.2570 C.ar    0  <0>0        0.0083
     17  C16        8.1790   36.6820   57.1820 C.ar    0  <0>0        0.0553
     18  C15        7.6180   37.9460   57.2170 C.ar    0  <0>0        0.0111
     19 Cl          7.9510   35.6680   55.7920 Cl      0  <0>0       -0.0825
     20  C14        7.7990   38.7530   58.3240 C.ar    0  <0>0        0.0008
     21  C13        8.5400   38.2960   59.3980 C.ar    0  <0>0       -0.0002
     22  C12        9.0970   37.0330   59.3660 C.ar    0  <0>0       -0.0018
     23  C18        7.2330   31.9920   59.2050 C.ar    0  <0>0        0.0810
     24  C23        5.8930   32.3230   59.4370 C.ar    0  <0>0        0.1445
     25  C22        5.0950   31.4720   60.1790 C.ar    0  <0>0        0.0298
     26  F1         5.3820   33.4680   58.9370 F       0  <0>0       -0.2040
     27  C21        5.6180   30.2990   60.6910 C.ar    0  <0>0        0.0023
     28  C20        6.9430   29.9670   60.4640 C.ar    0  <0>0        0.0003
     29  C19        7.7500   30.8020   59.7210 C.ar    0  <0>0        0.0068
@<TRIPOS>BOND
     1    19    17    1
     2    17    18   ar
     3    17    16   ar
     4    18    20   ar
     5     3     2    2
     6    15    16    1
     7    15     1    1
     8    16    22   ar
     9    20    21   ar
    10     2     1   am
    11     2    23    1
    12    26    24    1
    13     1     4    1
    14    23    24   ar
    15    23    29   ar
    16    22    21   ar
    17    24    25   ar
    18    29    28   ar
    19    25    27   ar
    20     4     5    1
    21    28    27   ar
    22     5     6    2
    23     5    11    1
    24     6     7    2
    25    11     8    1
    26     7     8    1
    27     7     9    1
    28     8    10    2
    29     9    13    1
    30    10    12    1
    31    13    12    2
    32    13    14    1
