@<TRIPOS>MOLECULE
ZINC04421176_replica-1.pdb
 23 25 0 0 0
SMALL
GASTEIGER

@<TRIPOS>ATOM
      1  C8        -0.2640   30.9500   55.4400 C.2     0  <0>0        0.2076
      2  C9        -1.7100   30.7360   55.5800 C.2     0  <0>0        0.3752
      3  O1        -2.5020   31.4250   56.1980 O.2     0  <0>0       -0.2418
      4  O2        -1.9740   29.6130   54.8790 O.3     0  <0>0       -0.3911
      5  C10       -0.8240   29.1550   54.3460 C.2     0  <0>0        0.2843
      6  N2         0.1830   29.9230   54.6560 N.2     0  <0>0       -0.3634
      7  C7         0.4840   31.9760   55.9800 C.3     0  <0>0        0.1542
      8  N1        -0.0720   32.8100   56.9020 N.pl3   0  <0>0       -0.3264
      9  H5        -0.9930   32.6820   57.1800 H       0  <0>0        0.1472
     10  C5         0.6850   33.8490   57.4490 C.ar    0  <0>0        0.0512
     11  C4         1.1710   33.7470   58.7480 C.ar    0  <0>0        0.0476
     12  C3         1.9200   34.7770   59.2850 C.ar    0  <0>0        0.0079
     13 Br          0.8090   32.2020   59.7760 Br      0  <0>0       -0.0477
     14  C2         2.1860   35.9050   58.5340 C.ar    0  <0>0        0.0006
     15  C1         1.7040   36.0100   57.2410 C.ar    0  <0>0        0.0013
     16  C6         0.9550   34.9850   56.6970 C.ar    0  <0>0        0.0148
     17  C11       -0.7190   27.9420   53.5120 C.ar    0  <0>0        0.0665
     18  C16       -1.3140   27.9040   52.2490 C.ar    0  <0>0        0.0066
     19  C15       -1.2070   26.7700   51.4720 C.ar    0  <0>0        0.0116
     20  C14       -0.5210   25.6650   51.9460 C.ar    0  <0>0        0.0577
     21  C13        0.0670   25.6930   53.2000 C.ar    0  <0>0        0.0116
     22 Cl         -0.3960   24.2380   50.9650 Cl      0  <0>0       -0.0822
     23  C12       -0.0280   26.8240   53.9850 C.ar    0  <0>0        0.0066
@<TRIPOS>BOND
     1    22    20    1
     2    19    20   ar
     3    19    18   ar
     4    20    21   ar
     5    18    17   ar
     6    21    23   ar
     7    17    23   ar
     8    17     5    1
     9     5     6    2
    10     5     4    1
    11     6     1    2
    12     4     2    1
    13     1     2    1
    14     1     7    1
    15     2     3    2
    16     7     8    1
    17    16    15   ar
    18    16    10   ar
    19     8     9    1
    20     8    10    1
    21    15    14   ar
    22    10    11   ar
    23    14    12   ar
    24    11    12   ar
    25    11    13    1
