@<TRIPOS>MOLECULE
ZINC48572544_replica-1.pdb
 32 35 0 0 0
SMALL
GASTEIGER

@<TRIPOS>ATOM
      1  C11        1.5440   32.5750   58.3710 C.ar    0  <0>0        0.0552
      2  C12        0.9080   31.4730   58.9510 C.ar    0  <0>0        0.0077
      3  C13       -0.0510   30.7830   58.2440 C.ar    0  <0>0        0.0371
      4  C14       -0.3870   31.1810   56.9560 C.ar    0  <0>0        0.1391
      5  C15        0.2430   32.2750   56.3750 C.ar    0  <0>0        0.0371
      6  C16        1.1990   32.9750   57.0780 C.ar    0  <0>0        0.0077
      7  C10        2.5730   33.3170   59.1260 C.2     0  <0>0        0.2645
      8  N3         3.6670   33.7850   58.4920 N.am    0  <0>0       -0.2023
      9  H8         3.7780   33.6330   57.5400 H       0  <0>0        0.1776
     10  O1         2.4330   33.5060   60.3190 O.2     0  <0>0       -0.2684
     11  N2         4.6430   34.4890   59.2080 N.2     0  <0>0       -0.1773
     12  C9         5.1500   35.5800   58.7160 C.2     0  <0>0        0.1191
     13  C7         6.1750   36.3190   59.4680 C.ar    0  <0>0        0.0391
     14  C5         7.6020   35.9690   59.5920 C.ar    0  <0>0        0.0186
     15  C4         8.1770   36.9630   60.4000 C.ar    0  <0>0        0.0567
     16  C6         8.3890   34.9310   59.0970 C.ar    0  <0>0        0.0015
     17  C3         9.5340   36.9010   60.6990 C.ar    0  <0>0        0.0170
     18  N1         7.1760   37.8500   60.7400 N.ar    0  <0>0       -0.3520
     19  C2        10.3000   35.8690   60.2020 C.ar    0  <0>0        0.0015
     20  C1         9.7310   34.8870   59.4030 C.ar    0  <0>0        0.0001
     21  C8         5.9930   37.4610   60.1850 C.ar    0  <0>0        0.0740
     22  H1         7.2960   38.6350   61.2970 H       0  <0>0        0.1660
     23  O2        -1.3330   30.5000   56.2610 O.3     0  <0>0       -0.4706
     24  C17       -1.4440   30.7810   54.8650 C.3     0  <0>0        0.2328
     25  C18       -1.1960   29.5210   54.0770 C.ar    0  <0>0        0.0318
     26  C23       -1.8750   29.3020   52.8910 C.ar    0  <0>0        0.0580
     27  C22       -1.6420   28.1480   52.1650 C.ar    0  <0>0        0.0226
     28 Cl         -3.0120   30.4790   52.3120 Cl      0  <0>0       -0.0824
     29  C21       -0.7390   27.2090   52.6300 C.ar    0  <0>0        0.0585
     30  C20       -0.0650   27.4270   53.8180 C.ar    0  <0>0        0.0112
     31 Cl         -0.4520   25.7570   51.7220 Cl      0  <0>0       -0.0822
     32  C19       -0.2940   28.5820   54.5410 C.ar    0  <0>0        0.0010
@<TRIPOS>BOND
     1    31    29    1
     2    27    29   ar
     3    27    26   ar
     4    28    26    1
     5    29    30   ar
     6    26    25   ar
     7    30    32   ar
     8    25    32   ar
     9    25    24    1
    10    24    23    1
    11    23     4    1
    12     5     4   ar
    13     5     6   ar
    14     4     3   ar
    15     6     1   ar
    16     9     8    1
    17     3     2   ar
    18     1     2   ar
    19     1     7    1
    20     8     7   am
    21     8    11    1
    22    12    11    2
    23    12    13    1
    24    16    20   ar
    25    16    14   ar
    26     7    10    2
    27    20    19   ar
    28    13    14   ar
    29    13    21   ar
    30    14    15   ar
    31    21    18   ar
    32    19    17   ar
    33    15    17   ar
    34    15    18   ar
    35    18    22    1
