@<TRIPOS>MOLECULE
ZINC18203366_replica-1.pdb
 21 23 0 0 0
SMALL
GASTEIGER

@<TRIPOS>ATOM
      1  C1        -1.2190   25.7460   51.3520 C.2     0  <0>0       -0.0036
      2  C2        -1.8770   26.8680   50.8620 C.2     0  <0>0        0.0020
      3  C3        -1.7890   28.0700   51.5040 C.2     0  <0>0        0.0284
      4  C4        -1.0280   28.1790   52.6710 C.2     0  <0>0        0.1236
      5  C5        -0.3610   27.0350   53.1660 C.3     0  <0>0        0.1509
      6  C6        -0.4670   25.8200   52.4910 C.2     0  <0>0       -0.0103
      7  C7         0.4330   27.1730   54.3950 C.2     0  <0>0        0.2387
      8  O1         1.0310   26.2250   54.8710 O.2     0  <0>0       -0.2739
      9  N1         0.4760   28.3930   54.9780 N.am    0  <0>0       -0.2539
     10  H1         0.9900   28.5220   55.7900 H       0  <0>0        0.1577
     11  C8        -0.2010   29.4460   54.4300 C.2     0  <0>0        0.2129
     12  N2        -0.9140   29.3450   53.3360 N.2     0  <0>0       -0.3843
     13  S1        -0.1100   31.0130   55.2330 S.3     0  <0>0       -0.0621
     14  C9        -1.6660   31.1220   56.1570 C.3     0  <0>0        0.0921
     15  C10       -1.9040   29.8290   56.8960 C.ar    0  <0>0       -0.0108
     16  C15       -2.8800   28.9530   56.4590 C.ar    0  <0>0       -0.0025
     17  C14       -3.0940   27.7660   57.1330 C.ar    0  <0>0        0.0111
     18  C13       -2.3400   27.4600   58.2520 C.ar    0  <0>0        0.0577
     19  C12       -1.3680   28.3400   58.6920 C.ar    0  <0>0        0.0111
     20 Cl         -2.6140   25.9710   59.1030 Cl      0  <0>0       -0.0822
     21  C11       -1.1500   29.5250   58.0140 C.ar    0  <0>0       -0.0025
@<TRIPOS>BOND
     1     2     1    1
     2     2     3    2
     3     1     6    2
     4     3     4    1
     5     6     5    1
     6     4     5    1
     7     4    12    2
     8     5     7    1
     9    12    11    2
    10     7     8    2
    11     7     9   am
    12    11     9    1
    13    11    13    1
    14     9    10    1
    15    13    14    1
    16    14    15    1
    17    16    15   ar
    18    16    17   ar
    19    15    21   ar
    20    17    18   ar
    21    21    19   ar
    22    18    19   ar
    23    18    20    1
