@<TRIPOS>MOLECULE
ZINC07654603_replica-1.pdb
 29 31 0 0 0
SMALL
GASTEIGER

@<TRIPOS>ATOM
      1  S2         1.0050   32.5430   57.3090 S.3     0  <0>0       -0.0768
      2  C9         2.7230   32.6720   56.9410 C.ar    0  <0>0        0.1611
      3  N3         3.7270   31.9290   57.3690 N.ar    0  <0>0       -0.1331
      4  N2         5.0080   32.2060   56.9510 N.ar    0  <0>0       -0.1249
      5  C8         5.2270   33.2110   56.1250 C.ar    0  <0>0        0.1865
      6  S1         3.5710   33.8350   55.8840 S.2     0  <0>0       -0.0242
      7  N1         6.4260   33.6610   55.5840 N.pl3   0  <0>0       -0.2913
      8  H9         6.9630   33.0450   54.8480 H       0  <0>0        0.1541
      9  C5         6.9490   34.8970   55.9750 C.ar    0  <0>0        0.0497
     10  C4         7.4010   35.0820   57.2750 C.ar    0  <0>0        0.0143
     11  C3         7.9170   36.3040   57.6570 C.ar    0  <0>0       -0.0030
     12  C2         7.9850   37.3440   56.7480 C.ar    0  <0>0       -0.0218
     13  C1         8.5490   38.6760   57.1690 C.3     0  <0>0        0.0310
     14  C7         7.5350   37.1630   55.4520 C.ar    0  <0>0       -0.0030
     15  C6         7.0230   35.9420   55.0610 C.ar    0  <0>0        0.0143
     16  C10        0.5930   30.8260   56.8930 C.3     0  <0>0        0.1489
     17  C11        0.0040   30.7720   55.5080 C.2     0  <0>0        0.2341
     18  O1        -0.0910   31.7860   54.8490 O.2     0  <0>0       -0.2741
     19  N4        -0.4250   29.5980   55.0030 N.am    0  <0>0       -0.3015
     20  H12       -0.3390   28.6780   55.6010 H       0  <0>0        0.1497
     21  C12       -1.0030   29.5460   53.6580 C.3     0  <0>0        0.0941
     22  C13       -2.4930   29.8900   53.7310 C.3     0  <0>0        0.0262
     23  C14       -0.8350   28.1600   53.0920 C.ar    0  <0>0       -0.0044
     24  C19       -0.1120   27.2120   53.7930 C.ar    0  <0>0       -0.0004
     25  C18        0.0430   25.9400   53.2760 C.ar    0  <0>0        0.0294
     26  C17       -0.5250   25.6150   52.0560 C.ar    0  <0>0        0.1401
     27  C16       -1.2500   26.5650   51.3560 C.ar    0  <0>0        0.0294
     28  F1        -0.3760   24.3710   51.5490 F       0  <0>0       -0.2042
     29  C15       -1.4080   27.8350   51.8780 C.ar    0  <0>0       -0.0004
@<TRIPOS>BOND
     1    27    29   ar
     2    27    26   ar
     3    28    26    1
     4    29    23   ar
     5    26    25   ar
     6    23    21    1
     7    23    24   ar
     8    25    24   ar
     9    21    22    1
    10    21    19    1
    11     8     7    1
    12    18    17    2
    13    19    17   am
    14    19    20    1
    15    15    14   ar
    16    15     9   ar
    17    14    12   ar
    18    17    16    1
    19     7     9    1
    20     7     5    1
    21     6     5   ar
    22     6     2   ar
    23     9    10   ar
    24     5     4   ar
    25    12    13    1
    26    12    11   ar
    27    16     1    1
    28     2     1    1
    29     2     3   ar
    30     4     3   ar
    31    10    11   ar
