@<TRIPOS>MOLECULE
ZINC49544278_replica-1.pdb
 22 23 0 0 0
SMALL
GASTEIGER

@<TRIPOS>ATOM
      1  N1        -0.5680   31.8410   55.0810 N.3     0  <0>0       -0.2924
      2  H13       -1.5120   32.1290   54.8690 H       0  <0>0        0.1236
      3  C4        -0.3290   31.8420   56.5310 C.3     0  <0>0        0.0829
      4  C3         0.2090   30.4770   56.9600 C.3     0  <0>0        0.0208
      5  C2        -0.5750   29.9770   58.1750 C.3     0  <0>0        0.0017
      6  C1         0.2270   30.2520   59.4490 C.3     0  <0>0        0.0001
      7  C5         0.6780   32.9090   56.8720 C.ar    0  <0>0        0.0215
      8  S1         2.4230   32.9700   56.4990 S.2     0  <0>0       -0.0895
      9  C8         2.7890   34.5430   57.2610 C.ar    0  <0>0        0.0352
     10  C7         1.5780   34.9070   57.7470 C.ar    0  <0>0        0.0072
     11  C6         0.4960   34.0710   57.5470 C.ar    0  <0>0        0.0040
     12  C9        -0.2750   30.5240   54.5010 C.3     0  <0>0        0.1030
     13  C10       -1.5340   29.9700   53.8320 C.3     0  <0>0        0.1485
     14  C11       -1.2210   28.6410   53.1940 C.ar    0  <0>0        0.0078
     15  C16       -0.4480   27.7150   53.8700 C.ar    0  <0>0        0.0277
     16  C15       -0.1660   26.4910   53.2860 C.ar    0  <0>0        0.1399
     17  C14       -0.6500   26.2020   52.0220 C.ar    0  <0>0        0.0296
     18  F1         0.5840   25.5840   53.9470 F       0  <0>0       -0.2042
     19  C13       -1.4180   27.1310   51.3450 C.ar    0  <0>0        0.0021
     20  C12       -1.7030   28.3490   51.9320 C.ar    0  <0>0       -0.0018
     21  O1        -2.5580   29.7970   54.8140 O.3     0  <0>0       -0.3786
     22  H20       -2.7190   30.5810   55.3570 H       0  <0>0        0.2108
@<TRIPOS>BOND
     1    19    20   ar
     2    19    17   ar
     3    20    14   ar
     4    17    16   ar
     5    14    13    1
     6    14    15   ar
     7    16    15   ar
     8    16    18    1
     9    13    12    1
    10    13    21    1
    11    12     1    1
    12    21    22    1
    13     2     1    1
    14     1     3    1
    15     8     7   ar
    16     8     9   ar
    17     3     7    1
    18     3     4    1
    19     7    11   ar
    20     4     5    1
    21     9    10   ar
    22    11    10   ar
    23     5     6    1
