@<TRIPOS>MOLECULE
ZINC15994557_replica-1.pdb
 27 31 0 0 0
SMALL
GASTEIGER

@<TRIPOS>ATOM
      1  C8         8.2430   33.4090   59.9580 C.ar    0  <0>0        0.1880
      2  N2         7.0230   33.6220   60.4330 N.ar    0  <0>0       -0.1256
      3  N3         6.0680   33.9670   59.6840 N.ar    0  <0>0       -0.1440
      4  C9         6.2210   34.1360   58.3850 C.ar    0  <0>0        0.1116
      5  S1         7.9620   33.7510   58.2230 S.2     0  <0>0       -0.0347
      6  N1         9.4050   33.0290   60.6190 N.am    0  <0>0       -0.2592
      7  C7        10.1780   33.9600   61.2100 C.2     0  <0>0        0.2531
      8  O1         9.8600   35.1330   61.1670 O.2     0  <0>0       -0.2697
      9  H4         9.6590   32.0940   60.6520 H       0  <0>0        0.1571
     10  C3        11.4140   33.5570   61.9110 C.ar    0  <0>0        0.0813
     11  C2        12.5710   34.3300   61.7930 C.ar    0  <0>0        0.0091
     12  C1        13.7210   33.9480   62.4480 C.ar    0  <0>0        0.0299
     13  C6        13.7330   32.7990   63.2250 C.ar    0  <0>0        0.1424
     14  C5        12.5900   32.0260   63.3460 C.ar    0  <0>0        0.0594
     15  F1        14.8650   32.4310   63.8640 F       0  <0>0       -0.2041
     16  C4        11.4280   32.4000   62.6990 C.ar    0  <0>0        0.1467
     17  F2        10.3120   31.6500   62.8230 F       0  <0>0       -0.2039
     18  C10        5.2170   34.5410   57.3370 C.3     0  <0>0        0.0430
     19  C15        5.9450   35.1890   56.1570 C.3     0  <0>0        0.0061
     20  C14        4.9250   35.6000   55.0930 C.3     0  <0>0        0.0004
     21  C13        3.9350   36.6000   55.6940 C.3     0  <0>0        0.0000
     22  C16        4.1670   34.3620   54.6080 C.3     0  <0>0        0.0000
     23  C12        3.2090   35.9530   56.8740 C.3     0  <0>0        0.0004
     24  C11        4.2280   35.5410   57.9370 C.3     0  <0>0        0.0061
     25  C18        2.4510   34.7160   56.3890 C.3     0  <0>0        0.0000
     26  C17        3.4390   33.7140   55.7880 C.3     0  <0>0        0.0004
     27  C19        4.4590   33.3040   56.8520 C.3     0  <0>0        0.0061
@<TRIPOS>BOND
     1    22    20    1
     2    22    26    1
     3    20    21    1
     4    20    19    1
     5    21    23    1
     6    26    25    1
     7    26    27    1
     8    19    18    1
     9    25    23    1
    10    27    18    1
    11    23    24    1
    12    18    24    1
    13    18     4    1
    14     5     4   ar
    15     5     1   ar
    16     4     3   ar
    17     3     2   ar
    18     1     2   ar
    19     1     6    1
    20     6     9    1
    21     6     7   am
    22     8     7    2
    23     7    10    1
    24    11    10   ar
    25    11    12   ar
    26    10    16   ar
    27    12    13   ar
    28    16    17    1
    29    16    14   ar
    30    13    14   ar
    31    13    15    1
