@<TRIPOS>MOLECULE
ZINC66183432_replica-1.pdb
 21 22 0 0 0
SMALL
GASTEIGER

@<TRIPOS>ATOM
      1  C8        -0.6670   30.2640   54.1210 C.3     0  <0>0        0.1085
      2  N1        -1.4570   29.4050   53.2370 N.pl3   0  <0>0       -0.3315
      3  H7        -2.2510   29.7550   52.8040 H       0  <0>0        0.1469
      4  C6        -1.0670   28.0820   53.0170 C.ar    0  <0>0        0.0403
      5  C5        -1.3740   27.4570   51.8150 C.ar    0  <0>0       -0.0088
      6  C4        -0.9870   26.1490   51.6010 C.ar    0  <0>0       -0.0034
      7  C16       -2.1300   28.2040   50.7470 C.3     0  <0>0        0.0323
      8  C3        -0.2940   25.4610   52.5810 C.ar    0  <0>0       -0.0045
      9  C2         0.0150   26.0820   53.7780 C.ar    0  <0>0       -0.0206
     10  C1         0.7710   25.3290   54.8420 C.3     0  <0>0        0.0311
     11  C7        -0.3740   27.3870   54.0010 C.ar    0  <0>0        0.0097
     12  C9        -1.5910   30.9380   55.1380 C.3     0  <0>0        0.1085
     13  N2        -1.1340   30.6270   56.4950 N.pl3   0  <0>0       -0.3313
     14  H12       -0.7550   31.3260   57.0510 H       0  <0>0        0.1469
     15  C10       -1.2460   29.3230   56.9890 C.ar    0  <0>0        0.0448
     16  C15       -2.4950   28.7280   57.1030 C.ar    0  <0>0        0.0166
     17  C14       -2.6030   27.4390   57.5860 C.ar    0  <0>0        0.0309
     18  C13       -1.4660   26.7440   57.9670 C.ar    0  <0>0        0.1402
     19  C12       -0.2210   27.3380   57.8600 C.ar    0  <0>0        0.0309
     20  F1        -1.5740   25.4850   58.4450 F       0  <0>0       -0.2042
     21  C11       -0.1070   28.6250   57.3710 C.ar    0  <0>0        0.0166
@<TRIPOS>BOND
     1     7     5    1
     2     6     5   ar
     3     6     8   ar
     4     5     4   ar
     5     8     9   ar
     6     3     2    1
     7     4     2    1
     8     4    11   ar
     9     2     1    1
    10     9    11   ar
    11     9    10    1
    12     1    12    1
    13    12    13    1
    14    13    15    1
    15    13    14    1
    16    15    16   ar
    17    15    21   ar
    18    16    17   ar
    19    21    19   ar
    20    17    18   ar
    21    19    18   ar
    22    18    20    1
