@<TRIPOS>MOLECULE
ZINC52226871_replica-1.pdb
 18 21 0 0 0
SMALL
GASTEIGER

@<TRIPOS>ATOM
      1  C4         8.3860   36.5400   58.3400 C.3     0  <0>0        0.0165
      2  C5         9.0310   37.6590   59.1610 C.3     0  <0>0        0.0014
      3  C6         9.3460   37.1420   60.5670 C.3     0  <0>0        0.0000
      4  C7         8.0500   36.6940   61.2470 C.3     0  <0>0        0.0000
      5  C8         7.4040   35.5760   60.4270 C.3     0  <0>0        0.0000
      6  C9         7.0900   36.0920   59.0210 C.3     0  <0>0        0.0014
      7  C10        8.3670   34.3910   60.3310 C.3     0  <0>0        0.0000
      8  C11        9.6630   34.8400   59.6510 C.3     0  <0>0        0.0000
      9  C12       10.3090   35.9580   60.4720 C.3     0  <0>0        0.0000
     10  C13        9.3480   35.3560   58.2450 C.3     0  <0>0        0.0014
     11  C3         8.0710   37.0560   56.9340 C.3     0  <0>0        0.0958
     12  N3         7.0630   36.1950   56.3130 N.3     0  <0>0       -0.1634
     13  C1         5.7400   36.4630   56.2190 C.3     0  <0>0        0.1389
     14  C2         5.1850   35.4090   55.5770 C.2     0  <0>0        0.0864
     15  N1         6.1840   34.5570   55.3130 N.2     0  <0>0       -0.1531
     16  N2         7.2830   35.0520   55.7620 N.pl3   0  <0>0       -0.0631
     17  C14        3.7300   35.2280   55.2270 C.3     0  <0>0        0.1118
     18 Br          2.6150   35.8290   56.7300 Br      0  <0>0       -0.0742
@<TRIPOS>BOND
     1    17    14    1
     2    17    18    1
     3    15    14    2
     4    15    16    1
     5    14    13    1
     6    16    12    1
     7    13    12    1
     8    12    11    1
     9    11     1    1
    10    10     1    1
    11    10     8    1
    12     1     6    1
    13     1     2    1
    14     6     5    1
    15     2     3    1
    16     8     7    1
    17     8     9    1
    18     7     5    1
    19     5     4    1
    20     9     3    1
    21     3     4    1
