@<TRIPOS>MOLECULE
ZINC13173941_replica-1.pdb
 28 29 0 0 0
SMALL
GASTEIGER

@<TRIPOS>ATOM
      1  C9         7.0550   33.4960   57.5470 C.2     0  <0>0        0.2672
      2  O2         6.8160   32.6850   56.6790 O.2     0  <0>0       -0.2711
      3  N1         6.1350   34.4270   57.8720 N.am    0  <0>0       -0.2986
      4  H10        6.2980   35.0310   58.6130 H       0  <0>0        0.1498
      5  C8         8.3810   33.4670   58.2630 C.3     0  <0>0        0.2893
      6  O1         9.0550   34.7130   58.0670 O.3     0  <0>0       -0.4660
      7  C6         9.4900   35.3600   59.1810 C.ar    0  <0>0        0.1349
      8  C5         8.9980   36.6190   59.4890 C.ar    0  <0>0        0.0115
      9  C4         9.4430   37.2750   60.6210 C.ar    0  <0>0       -0.0016
     10  C3        10.3760   36.6770   61.4470 C.ar    0  <0>0       -0.0044
     11  C2        10.8680   35.4200   61.1410 C.ar    0  <0>0       -0.0189
     12  C1        11.8860   34.7710   62.0440 C.3     0  <0>0        0.0311
     13  C7        10.4230   34.7590   60.0130 C.ar    0  <0>0        0.0323
     14  C19        7.9810   37.2720   58.5890 C.3     0  <0>0        0.0253
     15  C20        6.7600   37.6850   59.4150 C.3     0  <0>0        0.0048
     16  C21        8.5970   38.5110   57.9370 C.3     0  <0>0        0.0048
     17  C10        4.8910   34.5250   57.1060 C.3     0  <0>0        0.1054
     18  C11        4.8840   35.8300   56.3080 C.3     0  <0>0        0.1381
     19  C12        5.9070   35.7500   55.2040 C.2     0  <0>0        0.3669
     20  O3         6.9340   36.3840   55.2850 O.co2   0  <0>0       -0.2456
     21  O4         5.6800   34.9760   54.1320 O.co2   0  <0>0       -0.2456
     22  C13        3.7160   34.5080   58.0500 C.ar    0  <0>0       -0.0039
     23  C18        2.8450   35.5800   58.0890 C.ar    0  <0>0       -0.0018
     24  C17        1.7680   35.5650   58.9530 C.ar    0  <0>0        0.0111
     25  C16        1.5610   34.4750   59.7800 C.ar    0  <0>0        0.0577
     26  C15        2.4330   33.4010   59.7400 C.ar    0  <0>0        0.0111
     27 Cl          0.2070   34.4540   60.8670 Cl      0  <0>0       -0.0822
     28  C14        3.5070   33.4160   58.8710 C.ar    0  <0>0       -0.0018
@<TRIPOS>BOND
     1    21    19   ar
     2    19    20   ar
     3    19    18    1
     4    18    17    1
     5     2     1    2
     6    17     3    1
     7    17    22    1
     8     1     3   am
     9     1     5    1
    10     3     4    1
    11    16    14    1
    12    22    23   ar
    13    22    28   ar
    14     6     5    1
    15     6     7    1
    16    23    24   ar
    17    14    15    1
    18    14     8    1
    19    28    26   ar
    20    24    25   ar
    21     7     8   ar
    22     7    13   ar
    23     8     9   ar
    24    26    25   ar
    25    25    27    1
    26    13    11   ar
    27     9    10   ar
    28    11    10   ar
    29    11    12    1
