@<TRIPOS>MOLECULE
ZINC16840745_replica-1.pdb
 26 28 0 0 0
SMALL
GASTEIGER

@<TRIPOS>ATOM
      1  C2         5.6850   36.3150   56.2670 C.ar    0  <0>0        0.1562
      2  C3         6.4710   37.2590   55.6450 C.ar    0  <0>0        0.0385
      3  C4         7.8400   37.3180   55.8880 C.ar    0  <0>0        0.0033
      4  C5         8.4330   36.4510   56.7550 C.ar    0  <0>0        0.0030
      5  C6         7.6620   35.4840   57.4150 C.ar    0  <0>0        0.0348
      6  C7         6.2710   35.4080   57.1730 C.ar    0  <0>0        0.1163
      7  N1         5.5240   34.4910   57.8030 N.ar    0  <0>0       -0.2400
      8  C8         6.0410   33.6370   58.6490 C.ar    0  <0>0        0.1104
      9  C9         7.4130   33.6360   58.9460 C.ar    0  <0>0        0.1009
     10  C10        8.2520   34.5700   58.3210 C.ar    0  <0>0        0.0611
     11  C18        7.9520   32.6900   59.8780 C.1     0  <0>0        0.1032
     12  N3         8.3780   31.9400   60.6160 N.1     0  <0>0       -0.1907
     13  N2         9.6060   34.6020   58.5860 N.pl3   0  <0>0       -0.3119
     14  H8        10.2340   34.2250   57.9500 H       0  <0>0        0.1522
     15  C11       10.0740   35.1790   59.7700 C.ar    0  <0>0        0.0483
     16  C16       10.9980   34.5040   60.5550 C.ar    0  <0>0        0.0185
     17  C15       11.4580   35.0770   61.7260 C.ar    0  <0>0        0.0726
     18  C14       10.9930   36.3180   62.1180 C.ar    0  <0>0        0.0039
     19  C13       10.0750   36.9950   61.3360 C.ar    0  <0>0        0.0012
     20  C12        9.6130   36.4290   60.1640 C.ar    0  <0>0        0.0146
     21  C17       12.4620   34.3440   62.5790 C.3     0  <0>0        0.4186
     22  F1        13.7090   34.3560   61.9430 F       0  <0>0       -0.1659
     23  F2        12.0430   33.0230   62.7600 F       0  <0>0       -0.1659
     24  F3        12.5650   34.9760   63.8220 F       0  <0>0       -0.1659
     25  O1         4.3490   36.2670   56.0200 O.3     0  <0>0       -0.4699
     26  C1         3.9220   35.4580   54.9210 C.3     0  <0>0        0.2525
@<TRIPOS>BOND
     1    26    25    1
     2     2     3   ar
     3     2     1   ar
     4     3     4   ar
     5    25     1    1
     6     1     6   ar
     7     4     5   ar
     8     6     5   ar
     9     6     7   ar
    10     5    10   ar
    11     7     8   ar
    12    14    13    1
    13    10    13    1
    14    10     9   ar
    15    13    15    1
    16     8     9   ar
    17     9    11    1
    18    15    20   ar
    19    15    16   ar
    20    11    12    3
    21    20    19   ar
    22    16    17   ar
    23    19    18   ar
    24    17    18   ar
    25    17    21    1
    26    22    21    1
    27    21    23    1
    28    21    24    1
