@<TRIPOS>MOLECULE
ZINC02407757_replica-1.pdb
 23 25 0 0 0
SMALL
GASTEIGER

@<TRIPOS>ATOM
      1  N1         8.2200   36.4280   59.2260 N.am    0  <0>0       -0.1977
      2  C8         9.2860   35.6440   59.2600 C.2     0  <0>0        0.2647
      3  O1         9.6310   34.9790   58.3070 O.2     0  <0>0       -0.2713
      4  C9        10.0510   35.6390   60.5750 C.3     0  <0>0        0.2048
      5  S1         9.0200   36.8120   61.5430 S.3     0  <0>0       -0.0279
      6  C10        7.8150   37.1700   60.2730 C.2     0  <0>0        0.2877
      7  O2         6.8540   37.9110   60.3390 O.2     0  <0>0       -0.2619
      8  N2        10.0500   34.3050   61.1810 N.pl3   0  <0>0       -0.3183
      9  H9         9.2440   33.7650   61.1660 H       0  <0>0        0.1480
     10  C11       11.2130   33.8100   61.7810 C.ar    0  <0>0        0.0457
     11  C16       12.3920   34.5420   61.7220 C.ar    0  <0>0        0.0166
     12  C15       13.5380   34.0510   62.3140 C.ar    0  <0>0        0.0309
     13  C14       13.5140   32.8290   62.9660 C.ar    0  <0>0        0.1402
     14  C13       12.3390   32.0990   63.0270 C.ar    0  <0>0        0.0309
     15  F1        14.6360   32.3510   63.5450 F       0  <0>0       -0.2042
     16  C12       11.1890   32.5880   62.4410 C.ar    0  <0>0        0.0166
     17  C7         7.4720   36.4830   58.0430 C.ar    0  <0>0        0.0575
     18  C2         7.7180   37.4800   57.1100 C.ar    0  <0>0       -0.0077
     19  C1         8.7910   38.5060   57.3680 C.3     0  <0>0        0.0323
     20  C3         6.9800   37.5310   55.9430 C.ar    0  <0>0       -0.0030
     21  C4         5.9950   36.5900   55.7050 C.ar    0  <0>0       -0.0002
     22  C5         5.7440   35.5980   56.6360 C.ar    0  <0>0        0.0013
     23  C6         6.4820   35.5390   57.8000 C.ar    0  <0>0        0.0150
@<TRIPOS>BOND
     1    21    20   ar
     2    21    22   ar
     3    20    18   ar
     4    22    23   ar
     5    18    19    1
     6    18    17   ar
     7    23    17   ar
     8    17     1    1
     9     3     2    2
    10     1     2   am
    11     1     6   am
    12     2     4    1
    13     6     7    2
    14     6     5    1
    15     4     8    1
    16     4     5    1
    17     9     8    1
    18     8    10    1
    19    11    10   ar
    20    11    12   ar
    21    10    16   ar
    22    12    13   ar
    23    16    14   ar
    24    13    14   ar
    25    13    15    1
