@<TRIPOS>MOLECULE
ZINC20594684_replica-1.pdb
 18 18 0 0 0
SMALL
GASTEIGER

@<TRIPOS>ATOM
      1  N1        -1.0470   29.0420   53.4980 N.pl3   0  <0>0       -0.3333
      2  H16       -1.5510   29.7980   52.8770 H       0  <0>0        0.1468
      3  C2        -0.5670   29.3960   54.8370 C.3     0  <0>0        0.0714
      4  C1        -0.0420   30.8330   54.8260 C.3     0  <0>0        0.0212
      5  C3        -1.7170   29.2800   55.8380 C.3     0  <0>0        0.0467
      6  C4        -1.2160   28.6040   57.1160 C.3     0  <0>0        0.0946
      7  C5        -0.9870   29.6630   58.1970 C.3     0  <0>0        0.0297
      8  C6        -2.2580   27.5960   57.6020 C.3     0  <0>0        0.0297
      9  O1         0.0130   27.9260   56.8450 O.3     0  <0>0       -0.3558
     10  C7         0.6860   27.4550   58.0150 C.3     0  <0>0        0.1739
     11  C8        -0.8660   27.7440   53.0100 C.ar    0  <0>0        0.0554
     12  C13       -1.4470   27.3650   51.8060 C.ar    0  <0>0        0.0730
     13  C12       -1.2660   26.0820   51.3260 C.ar    0  <0>0        0.0423
     14 Cl         -2.4000   28.5040   50.9050 Cl      0  <0>0       -0.0809
     15  C11       -0.5070   25.1740   52.0440 C.ar    0  <0>0        0.1411
     16  C10        0.0720   25.5490   53.2450 C.ar    0  <0>0        0.0310
     17  F1        -0.3330   23.9190   51.5740 F       0  <0>0       -0.2041
     18  C9        -0.1050   26.8310   53.7280 C.ar    0  <0>0        0.0175
@<TRIPOS>BOND
     1    14    12    1
     2    13    12   ar
     3    13    15   ar
     4    17    15    1
     5    12    11   ar
     6    15    16   ar
     7     2     1    1
     8    11     1    1
     9    11    18   ar
    10    16    18   ar
    11     1     3    1
    12     4     3    1
    13     3     5    1
    14     5     6    1
    15     9     6    1
    16     9    10    1
    17     6     8    1
    18     6     7    1
