@<TRIPOS>MOLECULE
ZINC49181380_replica-1.pdb
 21 22 0 0 0
SMALL
GASTEIGER

@<TRIPOS>ATOM
      1  C7         0.8110   32.3190   56.8270 C.2     0  <0>0        0.2516
      2  O1         1.8720   31.9890   56.3330 O.2     0  <0>0       -0.2696
      3  N1        -0.3420   32.0720   56.1730 N.am    0  <0>0       -0.3001
      4  H8        -1.1890   32.3350   56.5670 H       0  <0>0        0.1498
      5  C8        -0.3160   31.4070   54.8680 C.3     0  <0>0        0.0944
      6  C9        -1.6210   30.6350   54.6620 C.3     0  <0>0        0.0473
      7  C10       -1.3490   29.3950   53.8510 C.ar    0  <0>0       -0.0244
      8  C15       -2.0370   29.1760   52.6730 C.ar    0  <0>0       -0.0261
      9  C14       -1.7840   28.0390   51.9270 C.ar    0  <0>0       -0.0088
     10  C16       -3.0580   30.1770   52.1980 C.3     0  <0>0        0.0307
     11  C13       -0.8500   27.1190   52.3640 C.ar    0  <0>0       -0.0222
     12  C12       -0.1670   27.3350   53.5460 C.ar    0  <0>0       -0.0046
     13  C17       -0.5780   25.8780   51.5520 C.3     0  <0>0        0.0310
     14  C11       -0.4170   28.4730   54.2900 C.ar    0  <0>0       -0.0048
     15  C6         0.7840   32.9840   58.1320 C.ar    0  <0>0        0.0788
     16  C3         0.6870   34.3380   58.4220 C.ar    0  <0>0       -0.0113
     17  C4         0.6810   34.6640   59.7570 C.ar    0  <0>0        0.0033
     18  C5         0.7740   33.6730   60.6780 C.ar    0  <0>0        0.0353
     19  S1         0.8720   32.2670   59.7630 S.2     0  <0>0       -0.0822
     20  C2         0.5870   35.3830   57.3410 C.3     0  <0>0        0.0270
     21  C1         1.9590   36.0250   57.1240 C.3     0  <0>0        0.0050
@<TRIPOS>BOND
     1    13    11    1
     2     9    11   ar
     3     9     8   ar
     4    10     8    1
     5    11    12   ar
     6     8     7   ar
     7    12    14   ar
     8     7    14   ar
     9     7     6    1
    10     6     5    1
    11     5     3    1
    12     3     4    1
    13     3     1   am
    14     2     1    2
    15     1    15    1
    16    21    20    1
    17    20    16    1
    18    15    16   ar
    19    15    19   ar
    20    16    17   ar
    21    17    18   ar
    22    19    18   ar
