@<TRIPOS>MOLECULE
ZINC22604884_replica-1.pdb
 22 24 0 0 0
SMALL
GASTEIGER

@<TRIPOS>ATOM
      1  C8        -0.3220   29.2580   54.9720 C.2     0  <0>0        0.0648
      2  C9         0.0230   29.0620   56.2980 C.3     0  <0>0        0.1305
      3  C10        0.0860   30.1830   57.1470 C.2     0  <0>0        0.2333
      4  O1         0.3910   30.0570   58.3210 O.2     0  <0>0       -0.2744
      5  N1        -0.2010   31.3980   56.6350 N.am    0  <0>0       -0.2543
      6  C11       -0.5360   31.5280   55.3360 C.3     0  <0>0        0.2218
      7  N2        -0.5940   30.5000   54.5360 N.2     0  <0>0       -0.2518
      8  C12       -0.1500   32.5820   57.4970 C.3     0  <0>0        0.1220
      9  C13        0.9750   33.4800   57.0490 C.ar    0  <0>0       -0.0022
     10  C18        2.1360   32.9320   56.5380 C.ar    0  <0>0       -0.0021
     11  C17        3.1670   33.7550   56.1270 C.ar    0  <0>0        0.0064
     12  C16        3.0360   35.1280   56.2260 C.ar    0  <0>0        0.0345
     13  C15        1.8740   35.6770   56.7370 C.ar    0  <0>0        0.0064
     14 Br          4.4470   36.2560   55.6630 Br      0  <0>0       -0.0490
     15  C14        0.8410   34.8530   57.1430 C.ar    0  <0>0       -0.0021
     16  C5        -0.3960   28.1070   54.0430 C.ar    0  <0>0        0.0137
     17  C4         0.2270   26.9020   54.3690 C.ar    0  <0>0        0.0008
     18  C3         0.1550   25.8340   53.4990 C.ar    0  <0>0       -0.0042
     19  C2        -0.5340   25.9550   52.3050 C.ar    0  <0>0       -0.0218
     20  C1        -0.6080   24.7850   51.3590 C.3     0  <0>0        0.0310
     21  C7        -1.1530   27.1480   51.9760 C.ar    0  <0>0       -0.0042
     22  C6        -1.0920   28.2210   52.8400 C.ar    0  <0>0        0.0008
@<TRIPOS>BOND
     1    20    19    1
     2    21    19   ar
     3    21    22   ar
     4    19    18   ar
     5    22    16   ar
     6    18    17   ar
     7    16    17   ar
     8    16     1    1
     9     7     1    2
    10     7     6    1
    11     1     2    1
    12     6     5    1
    13    14    12    1
    14    11    12   ar
    15    11    10   ar
    16    12    13   ar
    17     2     3    1
    18    10     9   ar
    19     5     3   am
    20     5     8    1
    21    13    15   ar
    22     9    15   ar
    23     9     8    1
    24     3     4    2
