@<TRIPOS>MOLECULE
ZINC51362981_replica-1.pdb
 21 23 0 0 0
SMALL
GASTEIGER

@<TRIPOS>ATOM
      1  C10        5.8170   35.9890   57.2640 C.ar    0  <0>0       -0.0047
      2  C11        5.1260   36.0980   58.4600 C.ar    0  <0>0       -0.0014
      3  C12        3.9660   35.3760   58.6590 C.ar    0  <0>0        0.0202
      4  C13        3.4920   34.5410   57.6580 C.ar    0  <0>0        0.1000
      5  C14        4.1870   34.4310   56.4540 C.ar    0  <0>0        0.1657
      6  C15        5.3490   35.1630   56.2620 C.ar    0  <0>0        0.0360
      7  O1         3.5050   33.5580   55.6740 O.2     0  <0>0       -0.4068
      8  C16        2.4230   33.1240   56.3400 C.ar    0  <0>0        0.4220
      9  O2         1.6070   32.3300   55.9120 O.2     0  <0>0       -0.2226
     10  N1         2.3830   33.7030   57.5560 N.ar    0  <0>0       -0.2601
     11  C17        1.3590   33.4920   58.5820 C.3     0  <0>0        0.1369
     12  C9         7.0820   36.7810   57.0550 C.3     0  <0>0        0.1012
     13 Br          7.7770   36.4380   55.2470 Br      0  <0>0       -0.0720
     14  C5         8.1100   36.3650   58.0750 C.ar    0  <0>0       -0.0118
     15  C4         8.7000   35.1170   57.9930 C.ar    0  <0>0       -0.0038
     16  C3         9.6430   34.7360   58.9280 C.ar    0  <0>0       -0.0046
     17  C2         9.9970   35.6030   59.9460 C.ar    0  <0>0       -0.0222
     18  C1        11.0260   35.1870   60.9660 C.3     0  <0>0        0.0310
     19  C7         9.4030   36.8480   60.0310 C.ar    0  <0>0       -0.0088
     20  C6         8.4630   37.2310   59.0930 C.ar    0  <0>0       -0.0250
     21  C8         7.8190   38.5910   59.1820 C.3     0  <0>0        0.0307
@<TRIPOS>BOND
     1    13    12    1
     2     7     8   ar
     3     7     5   ar
     4     9     8    2
     5     6     5   ar
     6     6     1   ar
     7     8    10   ar
     8     5     4   ar
     9    12     1    1
    10    12    14    1
    11     1     2   ar
    12    10     4   ar
    13    10    11    1
    14     4     3   ar
    15    15    14   ar
    16    15    16   ar
    17    14    20   ar
    18     2     3   ar
    19    16    17   ar
    20    20    21    1
    21    20    19   ar
    22    17    19   ar
    23    17    18    1
