@<TRIPOS>MOLECULE
ZINC13178798_replica-1.pdb
 26 27 0 0 0
SMALL
GASTEIGER

@<TRIPOS>ATOM
      1  N1        -0.4800   29.5060   55.1000 N.am    0  <0>0       -0.3009
      2  C11        0.2470   30.5550   55.5350 C.2     0  <0>0        0.2340
      3  O2         0.3300   31.5580   54.8580 O.2     0  <0>0       -0.2741
      4  H11       -0.6070   28.7330   55.6710 H       0  <0>0        0.1497
      5  C8        -1.0790   29.5350   53.7630 C.3     0  <0>0        0.1054
      6  C5        -0.9270   28.1830   53.1150 C.ar    0  <0>0       -0.0040
      7  C4        -0.2410   27.1770   53.7680 C.ar    0  <0>0       -0.0030
      8  C3        -0.1020   25.9360   53.1740 C.ar    0  <0>0       -0.0045
      9  C2        -0.6500   25.7030   51.9270 C.ar    0  <0>0       -0.0219
     10  C1        -0.4970   24.3510   51.2780 C.3     0  <0>0        0.0310
     11  C7        -1.3370   26.7090   51.2730 C.ar    0  <0>0       -0.0045
     12  C6        -1.4800   27.9480   51.8700 C.ar    0  <0>0       -0.0030
     13  C9        -2.5650   29.8810   53.8780 C.3     0  <0>0        0.1380
     14  C10       -2.9360   30.0250   55.3310 C.2     0  <0>0        0.3669
     15  O1        -3.0940   31.1240   55.8090 O.co2   0  <0>0       -0.2456
     16  O3        -3.0920   28.9330   56.0960 O.co2   0  <0>0       -0.2456
     17  C12        0.9570   30.4810   56.8620 C.3     0  <0>0        0.1469
     18  S1        -0.1900   30.9440   58.1880 S.3     0  <0>0       -0.1030
     19  C13        0.3380   32.5550   58.6670 C.ar    0  <0>0        0.0371
     20  C18        0.6660   32.8160   59.9920 C.ar    0  <0>0        0.0634
     21  C17        1.0800   34.0810   60.3630 C.ar    0  <0>0        0.0128
     22 Cl          0.5580   31.5540   61.1780 Cl      0  <0>0       -0.0817
     23  C16        1.1660   35.0870   59.4190 C.ar    0  <0>0        0.0123
     24  C15        0.8400   34.8310   58.0990 C.ar    0  <0>0        0.0582
     25  C14        0.4310   33.5670   57.7190 C.ar    0  <0>0        0.0184
     26 Cl          0.9500   36.0990   56.9160 Cl      0  <0>0       -0.0822
@<TRIPOS>BOND
     1    11    12   ar
     2    11     9   ar
     3    10     9    1
     4    12     6   ar
     5     9     8   ar
     6     6     5    1
     7     6     7   ar
     8     8     7   ar
     9     5    13    1
    10     5     1    1
    11    13    14    1
    12     3     2    2
    13     1     2   am
    14     1     4    1
    15    14    15   ar
    16    14    16   ar
    17     2    17    1
    18    17    18    1
    19    26    24    1
    20    25    24   ar
    21    25    19   ar
    22    24    23   ar
    23    18    19    1
    24    19    20   ar
    25    23    21   ar
    26    20    21   ar
    27    20    22    1
