@<TRIPOS>MOLECULE
ZINC04995038_replica-1.pdb
 27 29 0 0 0
SMALL
GASTEIGER

@<TRIPOS>ATOM
      1  C9         1.9120   33.6670   58.5240 C.ar    0  <0>0        0.0001
      2  C10        0.7810   33.8540   57.7250 C.ar    0  <0>0        0.0014
      3  C11        0.2980   32.8140   56.9620 C.ar    0  <0>0        0.0172
      4  C12        0.9360   31.5780   56.9850 C.ar    0  <0>0        0.0810
      5  C13        2.0600   31.3860   57.7820 C.ar    0  <0>0        0.0172
      6  C14        2.5510   32.4230   58.5450 C.ar    0  <0>0        0.0014
      7  N1         0.4440   30.5250   56.2090 N.am    0  <0>0       -0.1465
      8  C15       -0.4380   29.6540   56.7370 C.2     0  <0>0        0.2960
      9  O1        -0.7500   29.7390   57.9060 O.2     0  <0>0       -0.2684
     10  C16       -1.0390   28.5740   55.8750 C.3     0  <0>0        0.2920
     11  O2         0.0010   27.9020   55.1600 O.3     0  <0>0       -0.4655
     12  C17       -0.3280   27.3570   53.9600 C.ar    0  <0>0        0.1393
     13  C22       -1.0530   28.0970   53.0370 C.ar    0  <0>0        0.0369
     14  C21       -1.3850   27.5410   51.8160 C.ar    0  <0>0        0.0031
     15  C20       -0.9970   26.2500   51.5150 C.ar    0  <0>0        0.0002
     16  C19       -0.2740   25.5100   52.4330 C.ar    0  <0>0        0.0031
     17  C18        0.0660   26.0640   53.6520 C.ar    0  <0>0        0.0369
     18  O3         0.8730   30.3730   54.8690 O.3     0  <0>0       -0.2876
     19  H19        1.6030   30.9580   54.6200 H       0  <0>0        0.2421
     20  C8         2.4320   34.7760   59.3430 C.2     0  <0>0        0.0000
     21  C7         3.2740   35.6720   58.8030 C.2     0  <0>0        0.0000
     22  C4         3.8800   35.4120   57.4850 C.ar    0  <0>0        0.0000
     23  C3         3.2780   35.9080   56.3250 C.ar    0  <0>0        0.0000
     24  C2         3.8510   35.6610   55.0950 C.ar    0  <0>0        0.0000
     25  C1         5.0190   34.9240   55.0070 C.ar    0  <0>0        0.0000
     26  C6         5.6210   34.4300   56.1510 C.ar    0  <0>0        0.0000
     27  C5         5.0620   34.6730   57.3880 C.ar    0  <0>0        0.0000
@<TRIPOS>BOND
     1    15    14   ar
     2    15    16   ar
     3    14    13   ar
     4    16    17   ar
     5    13    12   ar
     6    17    12   ar
     7    12    11    1
     8    19    18    1
     9    18     7    1
    10    25    24   ar
    11    25    26   ar
    12    24    23   ar
    13    11    10    1
    14    10     8    1
    15    26    27   ar
    16     7     8   am
    17     7     4    1
    18    23    22   ar
    19     8     9    2
    20     3     4   ar
    21     3     2   ar
    22     4     5   ar
    23    27    22   ar
    24    22    21    1
    25     2     1   ar
    26     5     6   ar
    27     1     6   ar
    28     1    20    1
    29    21    20    2
