@<TRIPOS>MOLECULE
ZINC13640976_replica-1.pdb
 27 30 0 0 0
SMALL
GASTEIGER

@<TRIPOS>ATOM
      1  C10       -1.5650   29.3040   57.3990 C.3     0  <0>0        0.0923
      2  C11       -2.0950   29.3780   55.9830 C.3     0  <0>0        0.0262
      3  C12       -2.4940   30.7520   55.4330 C.3     0  <0>0        0.0023
      4  C13       -2.2280   30.5690   53.9370 C.3     0  <0>0        0.0004
      5  C14       -1.2950   29.6410   53.7530 C.3     0  <0>0        0.0045
      6  C15       -0.8410   29.1590   55.0800 C.3     0  <0>0        0.0255
      7  C16       -0.3910   27.7690   55.3110 C.ar    0  <0>0       -0.0088
      8  C17        0.1900   27.0190   54.3100 C.ar    0  <0>0       -0.0030
      9  C18        0.6110   25.7260   54.5560 C.ar    0  <0>0        0.0003
     10  C19        0.4520   25.1840   55.8180 C.ar    0  <0>0        0.0079
     11  C20       -0.1290   25.9240   56.8230 C.ar    0  <0>0        0.0473
     12  C21       -0.5690   27.2300   56.5880 C.ar    0  <0>0        0.0470
     13  N1        -1.1800   27.9050   57.6430 N.pl3   0  <0>0       -0.3305
     14 Br         -0.3380   25.1650   58.5420 Br      0  <0>0       -0.0477
     15  H22       -1.9560   27.3740   58.0100 H       0  <0>0        0.1471
     16  C4        -0.3620   30.2010   57.5460 C.ar    0  <0>0        0.0017
     17  C3        -0.4170   31.5060   57.0940 C.ar    0  <0>0        0.0376
     18  C2         0.6870   32.3340   57.2280 C.ar    0  <0>0        0.1752
     19  C7         1.8500   31.8500   57.8160 C.ar    0  <0>0        0.2060
     20  C6         1.9000   30.5370   58.2680 C.ar    0  <0>0        0.1752
     21  C5         0.7900   29.7170   58.1370 C.ar    0  <0>0        0.0376
     22  O1         0.6320   33.6180   56.7840 O.3     0  <0>0       -0.4683
     23  C1         0.2770   34.6210   57.7380 C.3     0  <0>0        0.2526
     24  O2         2.9350   32.6600   57.9490 O.3     0  <0>0       -0.4654
     25  C8         3.8750   32.6690   56.8730 C.3     0  <0>0        0.2528
     26  O3         3.0360   30.0590   58.8440 O.3     0  <0>0       -0.4683
     27  C9         3.0790   30.0360   60.2730 C.3     0  <0>0        0.2526
@<TRIPOS>BOND
     1     5     4    1
     2     5     6    1
     3     4     3    1
     4     8     9   ar
     5     8     7   ar
     6     9    10   ar
     7     6     7    1
     8     6     2    1
     9     7    12   ar
    10     3     2    1
    11    10    11   ar
    12     2     1    1
    13    12    11   ar
    14    12    13    1
    15    22    18    1
    16    22    23    1
    17    11    14    1
    18    25    24    1
    19    17    18   ar
    20    17    16   ar
    21    18    19   ar
    22     1    16    1
    23     1    13    1
    24    16    21   ar
    25    13    15    1
    26    19    24    1
    27    19    20   ar
    28    21    20   ar
    29    20    26    1
    30    26    27    1
