@<TRIPOS>MOLECULE
ZINC39460572_replica-1.pdb
 27 28 0 0 0
SMALL
GASTEIGER

@<TRIPOS>ATOM
      1  N2         6.3970   35.0900   57.9970 N.am    0  <0>0       -0.3035
      2  C8         7.0530   36.0330   57.2900 C.2     0  <0>0        0.2228
      3  O2         6.4660   36.6730   56.4440 O.2     0  <0>0       -0.2751
      4  H8         6.8660   34.5790   58.6740 H       0  <0>0        0.1495
      5  C9         8.5130   36.2920   57.5540 C.3     0  <0>0        0.0897
      6  C10        8.6630   37.1110   58.8380 C.3     0  <0>0        0.0359
      7  C11        9.5840   36.3900   59.7890 C.ar    0  <0>0       -0.0217
      8  C16        9.9920   37.0090   60.9560 C.ar    0  <0>0       -0.0046
      9  C15       10.8330   36.3470   61.8300 C.ar    0  <0>0       -0.0046
     10  C14       11.2720   35.0690   61.5350 C.ar    0  <0>0       -0.0228
     11  C13       10.8670   34.4530   60.3650 C.ar    0  <0>0       -0.0046
     12  C12       10.0230   35.1140   59.4920 C.ar    0  <0>0       -0.0046
     13  C17       12.1910   34.3490   62.4860 C.3     0  <0>0        0.0189
     14  C18       12.3300   35.1600   63.7750 C.3     0  <0>0        0.0044
     15  C19       11.6110   32.9710   62.8120 C.3     0  <0>0        0.0044
     16  C20       13.5680   34.1830   61.8380 C.3     0  <0>0        0.0044
     17  C7         4.9770   34.8390   57.7410 C.3     0  <0>0        0.1025
     18  C6         4.1400   35.4480   58.8690 C.3     0  <0>0        0.1146
     19  C2         2.6900   35.1950   58.5890 C.2     0  <0>0       -0.0328
     20  C1         1.9950   36.0220   57.5370 C.3     0  <0>0        0.0269
     21  C3         1.9990   34.2670   59.2310 C.2     0  <0>0        0.0067
     22  C4         2.6580   33.4510   60.2700 C.2     0  <0>0        0.0497
     23  N1         3.8730   33.8990   60.8050 N.am    0  <0>0       -0.2836
     24  C21        2.1080   32.3100   60.6920 C.2     0  <0>0        0.0159
     25  C5         4.5730   34.8560   60.1760 C.2     0  <0>0        0.2311
     26  H28        4.2080   33.5190   61.6310 H       0  <0>0        0.1549
     27  O1         5.6000   35.2540   60.6850 O.2     0  <0>0       -0.2744
@<TRIPOS>BOND
     1     3     2    2
     2     2     5    1
     3     2     1   am
     4    20    19    1
     5     5     6    1
     6    17     1    1
     7    17    18    1
     8     1     4    1
     9    19    18    1
    10    19    21    2
    11     6     7    1
    12    18    25    1
    13    21    22    1
    14    12     7   ar
    15    12    11   ar
    16     7     8   ar
    17    25    27    2
    18    25    23   am
    19    22    24    2
    20    22    23    1
    21    11    10   ar
    22    23    26    1
    23     8     9   ar
    24    10     9   ar
    25    10    13    1
    26    16    13    1
    27    13    15    1
    28    13    14    1
