@<TRIPOS>MOLECULE
ZINC66966318_replica-1.pdb
 29 30 0 0 0
SMALL
GASTEIGER

@<TRIPOS>ATOM
      1  C9         8.4040   33.5230   57.9550 C.3     0  <0>0        0.1470
      2  C10        8.5800   32.8360   59.3110 C.3     0  <0>0        0.0311
      3  C8         6.9390   33.7690   57.7020 C.2     0  <0>0        0.2439
      4  N1         6.4950   35.0190   57.4680 N.am    0  <0>0       -0.2822
      5  H7         7.1270   35.7510   57.3900 H       0  <0>0        0.1549
      6  O1         6.1590   32.8400   57.7100 O.2     0  <0>0       -0.2730
      7  C5         5.1230   35.2630   57.3380 C.ar    0  <0>0        0.0570
      8  C4         4.3650   35.5840   58.4550 C.ar    0  <0>0       -0.0079
      9  C3         3.0110   35.8250   58.3240 C.ar    0  <0>0       -0.0072
     10  C20        5.0180   35.6700   59.8110 C.3     0  <0>0        0.0323
     11  C2         2.4100   35.7480   57.0810 C.ar    0  <0>0       -0.0212
     12  C1         0.9330   36.0110   56.9420 C.3     0  <0>0        0.0310
     13  C7         3.1610   35.4230   55.9660 C.ar    0  <0>0        0.0084
     14  C6         4.5170   35.1860   56.0900 C.ar    0  <0>0        0.0705
     15 Cl          5.4600   34.7850   54.6890 Cl      0  <0>0       -0.0810
     16  N2         9.1200   34.8010   57.9590 N.pl3   0  <0>0       -0.3245
     17  H11        9.3020   35.2580   57.1230 H       0  <0>0        0.1473
     18  C11        9.5400   35.3630   59.1690 C.ar    0  <0>0        0.0816
     19  C16        8.9140   36.5050   59.6650 C.ar    0  <0>0        0.1518
     20  C15        9.3310   37.0550   60.8650 C.ar    0  <0>0        0.0405
     21  C14       10.3740   36.4780   61.5660 C.ar    0  <0>0        0.0328
     22  C13       11.0010   35.3480   61.0730 C.ar    0  <0>0        0.1416
     23  C12       10.5870   34.7890   59.8760 C.ar    0  <0>0        0.0470
     24  F1        12.0210   34.7890   61.7610 F       0  <0>0       -0.2041
     25  O2         7.8910   37.0750   58.9730 O.3     0  <0>0       -0.4715
     26  C17        8.0590   38.4350   58.5660 C.3     0  <0>0        0.2374
     27  C18        8.6820   38.4770   57.1700 C.3     0  <0>0        0.1894
     28  O3         8.1230   37.4360   56.3670 O.3     0  <0>0       -0.3471
     29  C19        7.1310   37.8850   55.4410 C.3     0  <0>0        0.1743
@<TRIPOS>BOND
     1    15    14    1
     2    29    28    1
     3    13    14   ar
     4    13    11   ar
     5    14     7   ar
     6    28    27    1
     7    12    11    1
     8    11     9   ar
     9    17    16    1
    10    27    26    1
    11     7     4    1
    12     7     8   ar
    13     5     4    1
    14     4     3   am
    15     3     6    2
    16     3     1    1
    17     1    16    1
    18     1     2    1
    19    16    18    1
    20     9     8   ar
    21     8    10    1
    22    26    25    1
    23    25    19    1
    24    18    19   ar
    25    18    23   ar
    26    19    20   ar
    27    23    22   ar
    28    20    21   ar
    29    22    21   ar
    30    22    24    1
