@<TRIPOS>MOLECULE
ZINC50665863_replica-1.pdb
 23 23 0 0 0
SMALL
GASTEIGER

@<TRIPOS>ATOM
      1  C1        -0.6660   26.2190   51.9640 C.1     0  <0>0       -0.0124
      2  C2        -0.9480   27.2840   52.3700 C.1     0  <0>0       -0.0559
      3  C3        -1.3010   28.6190   52.8800 C.3     0  <0>0        0.1681
      4  N1        -0.4680   28.9350   54.0430 N.am    0  <0>0       -0.2920
      5  C4        -0.3940   30.2020   54.4950 C.2     0  <0>0        0.2432
      6  O1        -1.0190   31.0820   53.9390 O.2     0  <0>0       -0.2732
      7  H4         0.0310   28.2320   54.4860 H       0  <0>0        0.1504
      8  C5         0.4630   30.5270   55.6910 C.3     0  <0>0        0.1759
      9  N2         1.0210   31.8740   55.5410 N.am    0  <0>0       -0.2931
     10  C6         1.9250   32.3310   56.4290 C.2     0  <0>0        0.2467
     11  O2         2.2800   31.6260   57.3540 O.2     0  <0>0       -0.2701
     12  H7         0.7370   32.4360   54.8030 H       0  <0>0        0.1502
     13  C7         2.4860   33.6860   56.2790 C.ar    0  <0>0        0.0593
     14  C12        1.8930   34.7730   56.9400 C.ar    0  <0>0        0.0371
     15  C11        2.4360   36.0450   56.7940 C.ar    0  <0>0        0.0065
     16  C10        3.5420   36.2360   55.9940 C.ar    0  <0>0        0.0005
     17  C9         4.1270   35.1650   55.3360 C.ar    0  <0>0        0.0002
     18  C8         3.6080   33.8970   55.4720 C.ar    0  <0>0        0.0050
     19  S1         0.4740   34.5270   57.9550 S.3     0  <0>0       -0.0143
     20  C13        1.1620   34.2090   59.6020 C.3     0  <0>0        0.4477
     21  F1         0.4840   34.9840   60.5490 F       0  <0>0       -0.1600
     22  F2         1.0140   32.8540   59.9160 F       0  <0>0       -0.1600
     23  F3         2.5200   34.5440   59.6130 F       0  <0>0       -0.1600
@<TRIPOS>BOND
     1     1     2    3
     2     2     3    1
     3     3     4    1
     4     6     5    2
     5     4     7    1
     6     4     5   am
     7     5     8    1
     8    12     9    1
     9    17    18   ar
    10    17    16   ar
    11    18    13   ar
    12     9     8    1
    13     9    10   am
    14    16    15   ar
    15    13    10    1
    16    13    14   ar
    17    10    11    2
    18    15    14   ar
    19    14    19    1
    20    19    20    1
    21    20    23    1
    22    20    22    1
    23    20    21    1
