@<TRIPOS>MOLECULE
ZINC32183505_replica-1.pdb
 24 25 0 0 0
SMALL
GASTEIGER

@<TRIPOS>ATOM
      1  C9        -0.6100   31.4870   57.0000 C.3     0  <0>0        0.1735
      2  C8         0.8260   31.4780   57.5290 C.3     0  <0>0        0.1206
      3  N1         0.8590   30.8280   58.8410 N.pl3   0  <0>0       -0.3306
      4  H9         1.0940   29.7560   58.9180 H       0  <0>0        0.1469
      5  C6         0.5900   31.5690   59.9950 C.ar    0  <0>0        0.0444
      6  C5         0.7660   32.9460   59.9940 C.ar    0  <0>0        0.0143
      7  C4         0.5000   33.6750   61.1360 C.ar    0  <0>0        0.0009
      8  C3         0.0590   33.0350   62.2800 C.ar    0  <0>0       -0.0042
      9  C2        -0.1110   31.6640   62.2860 C.ar    0  <0>0       -0.0206
     10  C1        -0.5850   30.9690   63.5370 C.3     0  <0>0        0.0311
     11  C7         0.1470   30.9280   61.1460 C.ar    0  <0>0        0.0100
     12  C10       -1.1280   30.0510   56.9080 C.3     0  <0>0        0.2361
     13  O1        -0.0600   29.1810   56.5320 O.3     0  <0>0       -0.4728
     14  C11       -0.1940   28.5090   55.3580 C.ar    0  <0>0        0.1387
     15  C16       -0.9930   29.0280   54.3490 C.ar    0  <0>0        0.0366
     16  C15       -1.1270   28.3440   53.1560 C.ar    0  <0>0       -0.0012
     17  C14       -0.4650   27.1450   52.9670 C.ar    0  <0>0       -0.0223
     18  C13        0.3310   26.6260   53.9720 C.ar    0  <0>0       -0.0012
     19  C12        0.4730   27.3090   55.1640 C.ar    0  <0>0        0.0366
     20  C17       -0.6140   26.4010   51.6650 C.3     0  <0>0        0.0224
     21  C18       -0.7340   24.9030   51.9450 C.3     0  <0>0        0.0047
     22  C19       -1.8700   26.8890   50.9400 C.3     0  <0>0        0.0047
     23  O2        -0.6360   32.0870   55.7030 O.3     0  <0>0       -0.3791
     24  H25       -1.4680   31.8750   55.0150 H       0  <0>0        0.2106
@<TRIPOS>BOND
     1    22    20    1
     2    20    21    1
     3    20    17    1
     4    17    16   ar
     5    17    18   ar
     6    16    15   ar
     7    18    19   ar
     8    15    14   ar
     9    24    23    1
    10    19    14   ar
    11    14    13    1
    12    23     1    1
    13    13    12    1
    14    12     1    1
    15     1     2    1
    16     2     3    1
    17     3     4    1
    18     3     5    1
    19     6     5   ar
    20     6     7   ar
    21     5    11   ar
    22     7     8   ar
    23    11     9   ar
    24     8     9   ar
    25     9    10    1
