@<TRIPOS>MOLECULE
ZINC37778024_replica-1.pdb
 20 21 0 0 0
SMALL
GASTEIGER

@<TRIPOS>ATOM
      1  C3        -0.7750   28.9860   53.6360 C.ar    0  <0>0        0.1512
      2  C4        -1.2190   28.1390   52.6350 C.ar    0  <0>0        0.0339
      3  C5        -0.7280   26.8480   52.5510 C.ar    0  <0>0       -0.0188
      4  C6         0.2070   26.4000   53.4650 C.ar    0  <0>0       -0.0028
      5  C7         0.6570   27.2400   54.4680 C.ar    0  <0>0        0.0171
      6  C8         0.1740   28.5370   54.5540 C.ar    0  <0>0        0.0793
      7  C16       -1.2150   25.9290   51.4610 C.3     0  <0>0        0.0311
      8  N1         0.6310   29.3900   55.5640 N.pl3   0  <0>0       -0.3278
      9  H10        1.3780   29.9860   55.3950 H       0  <0>0        0.1472
     10  C9        -0.0180   29.3840   56.8780 C.3     0  <0>0        0.0980
     11  C10        0.6290   28.3160   57.7620 C.3     0  <0>0        0.0266
     12  C11        0.1420   30.7350   57.5240 C.ar    0  <0>0        0.0246
     13  S1         0.7300   31.1360   59.1620 S.2     0  <0>0       -0.0940
     14  C14        0.5840   32.9130   59.0540 C.ar    0  <0>0        0.0074
     15  C13        0.0990   33.0780   57.7990 C.ar    0  <0>0        0.0024
     16  C15        0.9110   33.9560   60.0900 C.3     0  <0>0        0.0381
     17  C12       -0.1270   31.9630   57.0150 C.ar    0  <0>0        0.0039
     18  O1        -1.2560   30.2550   53.7200 O.3     0  <0>0       -0.4742
     19  C2        -2.6750   30.4070   53.7900 C.3     0  <0>0        0.2056
     20  C1        -3.0940   30.6230   55.2460 C.3     0  <0>0        0.0512
@<TRIPOS>BOND
     1     7     3    1
     2     3     2   ar
     3     3     4   ar
     4     2     1   ar
     5     4     5   ar
     6     1    18    1
     7     1     6   ar
     8    18    19    1
     9    19    20    1
    10     5     6   ar
    11     6     8    1
    12     9     8    1
    13     8    10    1
    14    10    12    1
    15    10    11    1
    16    17    12   ar
    17    17    15   ar
    18    12    13   ar
    19    15    14   ar
    20    14    13   ar
    21    14    16    1
