@<TRIPOS>MOLECULE
ZINC22685222_replica-1.pdb
 31 33 0 0 0
SMALL
GASTEIGER

@<TRIPOS>ATOM
      1  C8         0.9930   31.3110   56.9340 C.3     0  <0>0        0.1557
      2  C7         1.3400   30.2490   57.9790 C.3     0  <0>0        0.0554
      3  C4         0.3550   29.1130   57.8870 C.ar    0  <0>0       -0.0200
      4  C3        -0.9820   29.3340   58.1590 C.ar    0  <0>0       -0.0042
      5  C2        -1.8860   28.2920   58.0740 C.ar    0  <0>0       -0.0003
      6  C1        -1.4530   27.0280   57.7190 C.ar    0  <0>0       -0.0000
      7  C6        -0.1160   26.8060   57.4470 C.ar    0  <0>0       -0.0003
      8  C5         0.7870   27.8500   57.5260 C.ar    0  <0>0       -0.0042
      9  C9         2.0860   32.3470   56.8880 C.2     0  <0>0        0.2444
     10  O1         2.6740   32.6560   57.9030 O.2     0  <0>0       -0.2730
     11  N1         2.4110   32.9310   55.7170 N.am    0  <0>0       -0.2826
     12  H9         1.9330   32.5970   54.7850 H       0  <0>0        0.1549
     13  C10        3.3590   33.9620   55.6880 C.ar    0  <0>0        0.0505
     14  C15        4.6840   33.6810   55.3860 C.ar    0  <0>0        0.0170
     15  C14        5.6160   34.6980   55.3580 C.ar    0  <0>0        0.0309
     16  C13        5.2300   36.0000   55.6320 C.ar    0  <0>0        0.1402
     17  C12        3.9090   36.2840   55.9340 C.ar    0  <0>0        0.0309
     18  F1         6.1430   36.9950   55.6040 F       0  <0>0       -0.2042
     19  C11        2.9720   35.2690   55.9570 C.ar    0  <0>0        0.0170
     20  N2         0.8640   30.6780   55.6190 N.am    0  <0>0       -0.2637
     21  C16       -0.2740   30.8200   54.9120 C.2     0  <0>0        0.4023
     22  O2        -1.1940   31.4720   55.3650 O.2     0  <0>0       -0.2264
     23  H14        1.6970   30.0880   55.2090 H       0  <0>0        0.1532
     24  O3        -0.3920   30.2380   53.7030 O.3     0  <0>0       -0.4297
     25  C17       -1.5740   29.4250   53.4760 C.3     0  <0>0        0.2367
     26  C18       -1.1570   28.0600   52.9900 C.ar    0  <0>0        0.0213
     27  C23       -1.5500   27.6210   51.7390 C.ar    0  <0>0       -0.0007
     28  C22       -1.1660   26.3700   51.2950 C.ar    0  <0>0       -0.0002
     29  C21       -0.3920   25.5570   52.1010 C.ar    0  <0>0       -0.0000
     30  C20        0.0010   25.9950   53.3510 C.ar    0  <0>0       -0.0002
     31  C19       -0.3780   27.2480   53.7950 C.ar    0  <0>0       -0.0007
@<TRIPOS>BOND
     1    28    27   ar
     2    28    29   ar
     3    27    26   ar
     4    29    30   ar
     5    26    25    1
     6    26    31   ar
     7    30    31   ar
     8    25    24    1
     9    24    21    1
    10    12    11    1
    11    21    22    2
    12    21    20   am
    13    23    20    1
    14    15    14   ar
    15    15    16   ar
    16    14    13   ar
    17    18    16    1
    18    20     1    1
    19    16    17   ar
    20    13    11    1
    21    13    19   ar
    22    11     9   am
    23    17    19   ar
    24     9     1    1
    25     9    10    2
    26     1     2    1
    27     7     8   ar
    28     7     6   ar
    29     8     3   ar
    30     6     5   ar
    31     3     2    1
    32     3     4   ar
    33     5     4   ar
