@<TRIPOS>MOLECULE
ZINC43682654_replica-1.pdb
 21 22 0 0 0
SMALL
GASTEIGER

@<TRIPOS>ATOM
      1  C10        6.9770   35.2060   57.4160 C.ar    0  <0>0        0.0445
      2  C11        5.9070   35.8490   56.8550 C.ar    0  <0>0        0.0465
      3  C12        6.0750   36.4530   55.6120 C.ar    0  <0>0        0.0155
      4  C13        7.2810   36.3850   55.0070 C.ar    0  <0>0        0.0358
      5  S1         8.2460   35.4560   56.1870 S.2     0  <0>0       -0.0877
      6  C9         7.0630   34.4800   58.7340 C.3     0  <0>0        0.1755
      7  O1         7.7450   35.3000   59.6860 O.3     0  <0>0       -0.3509
      8  C8         8.9120   35.9430   59.1690 C.3     0  <0>0        0.1156
      9  C3         9.0450   37.3350   59.7910 C.3     0  <0>0        0.0272
     10  C4         9.1650   37.2040   61.3110 C.3     0  <0>0        0.0024
     11  C5        10.4010   36.3710   61.6560 C.3     0  <0>0        0.0002
     12  C6        10.2680   34.9790   61.0330 C.3     0  <0>0        0.0025
     13  C7        10.1480   35.1090   59.5130 C.3     0  <0>0        0.0296
     14  C2         7.8080   38.1680   59.4480 C.3     0  <0>0        0.0024
     15  C1         7.9870   38.7980   58.0650 C.3     0  <0>0        0.0001
     16  C14        4.6440   35.8980   57.5300 C.1     0  <0>0       -0.0640
     17  C15        3.6100   35.9400   58.0840 C.1     0  <0>0       -0.0838
     18  C16        2.3130   35.9900   58.7780 C.3     0  <0>0        0.1080
     19  C17        1.2340   35.3680   57.8890 C.3     0  <0>0        0.1511
     20  O2         0.7910   36.3330   56.9320 O.3     0  <0>0       -0.3809
     21  H24        0.1110   36.9340   57.2660 H       0  <0>0        0.2105
@<TRIPOS>BOND
     1     4     3   ar
     2     4     5   ar
     3     3     2   ar
     4     5     1   ar
     5     2     1   ar
     6     2    16    1
     7    20    21    1
     8    20    19    1
     9     1     6    1
    10    16    17    3
    11    19    18    1
    12    15    14    1
    13    17    18    1
    14     6     7    1
    15     8    13    1
    16     8     7    1
    17     8     9    1
    18    14     9    1
    19    13    12    1
    20     9    10    1
    21    12    11    1
    22    10    11    1
