@<TRIPOS>MOLECULE
ZINC06819566_replica-1.pdb
 29 32 0 0 0
SMALL
GASTEIGER

@<TRIPOS>ATOM
      1  C9         7.0370   35.4980   56.2080 C.3     0  <0>0        0.0573
      2  C10        7.4630   36.7120   55.3790 C.3     0  <0>0        0.0942
      3  C11        7.5290   37.9220   56.2750 C.2     0  <0>0        0.2265
      4  O1         7.2430   39.0150   55.8350 O.2     0  <0>0       -0.2748
      5  N1         7.9050   37.7930   57.5590 N.am    0  <0>0       -0.2875
      6  C12        8.2580   36.5720   58.0760 C.2     0  <0>0        0.0268
      7  C13        7.8710   35.4320   57.4660 C.2     0  <0>0        0.0261
      8  C14        8.2280   34.1730   57.9750 C.2     0  <0>0        0.1706
      9  O2         7.8490   33.1680   57.4040 O.2     0  <0>0       -0.2916
     10  C15        9.0720   34.0480   59.2130 C.3     0  <0>0        0.0736
     11  C16        9.9710   35.2840   59.3300 C.3     0  <0>0        0.0356
     12  C17        9.0850   36.5310   59.3370 C.3     0  <0>0        0.0458
     13  H14        7.9280   38.5760   58.1300 H       0  <0>0        0.1545
     14  C6         5.5810   35.6270   56.5750 C.ar    0  <0>0       -0.0178
     15  C5         4.6460   35.9220   55.6000 C.ar    0  <0>0       -0.0043
     16  C4         3.3100   36.0390   55.9380 C.ar    0  <0>0       -0.0046
     17  C3         2.9100   35.8610   57.2490 C.ar    0  <0>0       -0.0222
     18  C8         3.8460   35.5650   58.2220 C.ar    0  <0>0       -0.0046
     19  C7         5.1810   35.4440   57.8850 C.ar    0  <0>0       -0.0043
     20  C2         1.4550   35.9910   57.6160 C.3     0  <0>0        0.0264
     21  C1         1.1850   35.2190   58.9090 C.3     0  <0>0        0.0050
     22  C18       10.7590   35.2160   60.6130 C.ar    0  <0>0       -0.0215
     23  C23       11.4450   34.0610   60.9410 C.ar    0  <0>0       -0.0011
     24  C22       12.1690   33.9960   62.1160 C.ar    0  <0>0        0.0366
     25  C21       12.2080   35.0910   62.9660 C.ar    0  <0>0        0.1387
     26  C20       11.5180   36.2490   62.6350 C.ar    0  <0>0        0.0366
     27  C19       10.8010   36.3100   61.4560 C.ar    0  <0>0       -0.0011
     28  O3        12.9190   35.0300   64.1230 O.3     0  <0>0       -0.4714
     29  C24       14.0550   34.1630   64.1390 C.3     0  <0>0        0.2525
@<TRIPOS>BOND
     1     2     1    1
     2     2     3    1
     3    15    16   ar
     4    15    14   ar
     5     4     3    2
     6    16    17   ar
     7     1    14    1
     8     1     7    1
     9     3     5   am
    10    14    19   ar
    11    17    20    1
    12    17    18   ar
    13     9     8    2
    14     7     8    1
    15     7     6    2
    16     5     6    1
    17     5    13    1
    18    20    21    1
    19    19    18   ar
    20     8    10    1
    21     6    12    1
    22    10    11    1
    23    11    12    1
    24    11    22    1
    25    22    23   ar
    26    22    27   ar
    27    23    24   ar
    28    27    26   ar
    29    24    25   ar
    30    26    25   ar
    31    25    28    1
    32    28    29    1
