@<TRIPOS>MOLECULE
ZINC63659030_replica-1.pdb
 30 33 0 0 0
SMALL
GASTEIGER

@<TRIPOS>ATOM
      1  N2         0.4310   31.6060   56.2930 N.am    0  <0>0       -0.2845
      2  C11        0.2540   31.0000   54.9710 C.3     0  <0>0        0.0932
      3  C10       -0.9670   30.0790   54.9930 C.3     0  <0>0        0.0275
      4  C3        -0.5500   28.6840   54.6020 C.3     0  <0>0        0.0431
      5  C2         0.2700   27.7160   55.4270 C.3     0  <0>0        0.0731
      6  C1        -0.4540   27.3950   56.7360 C.3     0  <0>0        0.0215
      7  N1         0.4030   26.5040   54.6110 N.pl3   0  <0>0       -0.3340
      8  C9        -0.2300   26.6920   53.4770 C.ar    0  <0>0        0.0406
      9  H30        0.8780   25.6970   54.8680 H       0  <0>0        0.1468
     10  C4        -0.8330   28.0440   53.4450 C.ar    0  <0>0       -0.0077
     11  C8        -0.4140   25.8530   52.3440 C.ar    0  <0>0        0.0140
     12  C5        -1.5850   28.4400   52.2490 C.ar    0  <0>0       -0.0030
     13  C6        -1.6990   27.5630   51.2250 C.ar    0  <0>0       -0.0002
     14  C7        -1.1200   26.2880   51.2800 C.ar    0  <0>0        0.0012
     15  C12       -0.3160   31.0900   57.4420 C.3     0  <0>0        0.1574
     16  C13        0.6420   30.7680   58.5610 C.ar    0  <0>0        0.1430
     17  O1         0.7870   31.4700   59.6970 O.2     0  <0>0       -0.4530
     18  C16        1.7260   30.8910   60.4640 C.ar    0  <0>0        0.1792
     19  C15        2.1990   29.8120   59.8150 C.ar    0  <0>0        0.0435
     20  C14        1.5000   29.7330   58.5880 C.ar    0  <0>0        0.0379
     21  C17        1.2810   32.6400   56.4520 C.2     0  <0>0        0.1349
     22  S1         0.7270   34.1060   57.1390 S.2     0  <0>0       -0.0186
     23  N3         2.5680   32.5210   56.0680 N.am    0  <0>0       -0.3176
     24  H18        2.8830   31.6900   55.6780 H       0  <0>0        0.1484
     25  C18        3.4920   33.6450   56.2400 C.3     0  <0>0        0.0706
     26  C23        4.6600   33.2140   57.1280 C.3     0  <0>0        0.0195
     27  C22        5.6240   34.3880   57.3080 C.3     0  <0>0        0.0017
     28  C21        6.1560   34.8240   55.9420 C.3     0  <0>0        0.0001
     29  C20        4.9880   35.2550   55.0530 C.3     0  <0>0        0.0017
     30  C19        4.0240   34.0800   54.8730 C.3     0  <0>0        0.0195
@<TRIPOS>BOND
     1    13    14   ar
     2    13    12   ar
     3    14    11   ar
     4    12    10   ar
     5    11     8   ar
     6    10     8   ar
     7    10     4    1
     8     8     7    1
     9     4     3    1
    10     4     5    1
    11     7     9    1
    12     7     5    1
    13    30    29    1
    14    30    25    1
    15     2     3    1
    16     2     1    1
    17    29    28    1
    18     5     6    1
    19    24    23    1
    20    28    27    1
    21    23    25    1
    22    23    21    1
    23    25    26    1
    24     1    21    1
    25     1    15    1
    26    21    22    2
    27    26    27    1
    28    15    16    1
    29    16    20   ar
    30    16    17   ar
    31    20    19   ar
    32    17    18   ar
    33    19    18   ar
