@<TRIPOS>MOLECULE
ZINC04690148_replica-1.pdb
 27 30 0 0 0
SMALL
GASTEIGER

@<TRIPOS>ATOM
      1  C9         8.1770   36.4390   56.9750 C.2     0  <0>0        0.0127
      2  C10        7.1180   35.5920   56.8670 C.2     0  <0>0        0.0876
      3  C11        6.3440   34.9710   57.8930 C.2     0  <0>0        0.2618
      4  O1         6.5910   35.1640   59.0690 O.2     0  <0>0       -0.2689
      5  N2         5.3480   34.1820   57.5270 N.am    0  <0>0       -0.2127
      6  C12        5.0780   33.9610   56.2220 C.2     0  <0>0        0.2867
      7  O2         4.2100   33.2650   55.7290 O.2     0  <0>0       -0.2619
      8  S1         6.3200   34.9500   55.4020 S.3     0  <0>0       -0.0252
      9  C7         8.5630   36.9640   58.2850 C.ar    0  <0>0        0.0190
     10  C5         9.4020   36.2900   59.2950 C.ar    0  <0>0        0.0170
     11  C4         9.4930   37.1800   60.3770 C.ar    0  <0>0        0.0566
     12  C6        10.0470   35.0570   59.3470 C.ar    0  <0>0        0.0015
     13  C3        10.2310   36.8160   61.4980 C.ar    0  <0>0        0.0170
     14  N1         8.7660   38.3060   60.0510 N.ar    0  <0>0       -0.3520
     15  C2        10.8650   35.5940   61.5380 C.ar    0  <0>0        0.0015
     16  C1        10.7740   34.7160   60.4670 C.ar    0  <0>0        0.0001
     17  C8         8.2230   38.1790   58.8130 C.ar    0  <0>0        0.0724
     18  H1         8.6600   39.0830   60.6230 H       0  <0>0        0.1660
     19  C13        4.5290   33.5310   58.5530 C.3     0  <0>0        0.1316
     20  C14        3.1000   33.9930   58.4220 C.ar    0  <0>0        0.0362
     21  C19        2.1000   33.0780   58.1440 C.ar    0  <0>0        0.0575
     22  C18        0.7890   33.5020   58.0290 C.ar    0  <0>0        0.0113
     23 Cl          2.4910   31.3980   57.9450 Cl      0  <0>0       -0.0824
     24  C17        0.4770   34.8390   58.1810 C.ar    0  <0>0        0.0032
     25  C16        1.4750   35.7550   58.4540 C.ar    0  <0>0        0.0294
     26  C15        2.7880   35.3330   58.5740 C.ar    0  <0>0        0.1386
     27  F1         3.7650   36.2280   58.8400 F       0  <0>0       -0.2044
@<TRIPOS>BOND
     1     8     6    1
     2     8     2    1
     3     7     6    2
     4     6     5   am
     5     2     1    2
     6     2     3    1
     7     1     9    1
     8     5     3   am
     9     5    19    1
    10     3     4    2
    11    23    21    1
    12    22    21   ar
    13    22    24   ar
    14    21    20   ar
    15    24    25   ar
    16     9    17   ar
    17     9    10   ar
    18    20    19    1
    19    20    26   ar
    20    25    26   ar
    21    26    27    1
    22    17    14   ar
    23    10    12   ar
    24    10    11   ar
    25    12    16   ar
    26    14    11   ar
    27    14    18    1
    28    11    13   ar
    29    16    15   ar
    30    13    15   ar
