@<TRIPOS>MOLECULE
ZINC32975121_replica-1.pdb
 31 35 0 0 0
SMALL
GASTEIGER

@<TRIPOS>ATOM
      1  C8        -0.0950   29.6600   59.3700 C.ar    0  <0>0        0.0638
      2  C9         0.0840   30.8550   58.7090 C.ar    0  <0>0        0.1378
      3  N1        -0.1940   31.0030   57.3390 N.ar    0  <0>0       -0.2774
      4  C10       -0.0200   32.1660   56.6940 C.ar    0  <0>0        0.2634
      5  O1        -0.2690   32.2630   55.5080 O.2     0  <0>0       -0.2669
      6  C11        0.4810   33.3240   57.4570 C.ar    0  <0>0        0.0724
      7  C12        0.6820   34.5610   56.8470 C.ar    0  <0>0        0.0062
      8  C13        1.1290   35.6240   57.6040 C.ar    0  <0>0        0.0003
      9  C14        1.4060   35.4590   58.9510 C.ar    0  <0>0        0.0015
     10  C15        1.2150   34.2360   59.5630 C.ar    0  <0>0        0.0177
     11  C16        0.7410   33.1630   58.8210 C.ar    0  <0>0        0.0708
     12  N2         0.5470   31.9140   59.4460 N.ar    0  <0>0       -0.2816
     13  C17        0.8100   31.7190   60.7750 C.ar    0  <0>0        0.1322
     14  S1         1.3960   32.8520   61.9170 S.2     0  <0>0       -0.0244
     15  S2         0.4110   30.0560   61.0280 S.2     0  <0>0       -0.0594
     16  C18       -0.6920   29.8460   56.5900 C.3     0  <0>0        0.1576
     17  C19        0.2400   29.5650   55.4080 C.3     0  <0>0        0.2299
     18  O2        -0.5380   29.3200   54.2350 O.3     0  <0>0       -0.4734
     19  C20       -0.4580   28.0790   53.6900 C.ar    0  <0>0        0.1386
     20  C25       -1.0330   27.8240   52.4530 C.ar    0  <0>0        0.0369
     21  C24       -0.9500   26.5600   51.9010 C.ar    0  <0>0        0.0031
     22  C23       -0.2940   25.5490   52.5790 C.ar    0  <0>0        0.0002
     23  C22        0.2800   25.8000   53.8110 C.ar    0  <0>0        0.0031
     24  C21        0.2040   27.0640   54.3650 C.ar    0  <0>0        0.0369
     25  C7        -0.5780   28.3720   58.8350 C.ar    0  <0>0        0.0050
     26  C2         0.3330   27.4150   58.3810 C.ar    0  <0>0       -0.0213
     27  C1         1.8120   27.6910   58.4420 C.3     0  <0>0        0.0310
     28  C3        -0.1260   26.2130   57.8830 C.ar    0  <0>0       -0.0042
     29  C4        -1.4860   25.9560   57.8300 C.ar    0  <0>0       -0.0003
     30  C5        -2.3930   26.9000   58.2790 C.ar    0  <0>0       -0.0000
     31  C6        -1.9480   28.1050   58.7790 C.ar    0  <0>0        0.0003
@<TRIPOS>BOND
     1    21    20   ar
     2    21    22   ar
     3    20    19   ar
     4    22    23   ar
     5    19    18    1
     6    19    24   ar
     7    23    24   ar
     8    18    17    1
     9    17    16    1
    10     5     4    2
    11    16     3    1
    12     4     3   ar
    13     4     6   ar
    14     7     6   ar
    15     7     8   ar
    16     3     2   ar
    17     6    11   ar
    18     8     9   ar
    19    29    28   ar
    20    29    30   ar
    21    28    26   ar
    22    30    31   ar
    23    26    27    1
    24    26    25   ar
    25     2     1   ar
    26     2    12   ar
    27    31    25   ar
    28    11    12   ar
    29    11    10   ar
    30    25     1    1
    31     9    10   ar
    32     1    15   ar
    33    12    13   ar
    34    13    15   ar
    35    13    14    2
