@<TRIPOS>MOLECULE
ZINC37067691_replica-1.pdb
 21 21 0 0 0
SMALL
GASTEIGER

@<TRIPOS>ATOM
      1  C8         9.7520   36.0090   59.6720 C.ar    0  <0>0        0.0446
      2  C9        10.3720   34.7710   59.7630 C.ar    0  <0>0        0.0148
      3  C10       11.1260   34.4560   60.8770 C.ar    0  <0>0        0.0077
      4  C11       11.2620   35.3780   61.9060 C.ar    0  <0>0        0.0328
      5  C12       10.6410   36.6180   61.8150 C.ar    0  <0>0        0.0077
      6  C13        9.8920   36.9340   60.6990 C.ar    0  <0>0        0.0148
      7  N1         8.9880   36.3290   58.5430 N.pl3   0  <0>0       -0.3340
      8  H16        9.1060   35.8300   57.7200 H       0  <0>0        0.1468
      9  C2         8.0080   37.4170   58.6070 C.3     0  <0>0        0.0714
     10  C1         8.5090   38.6030   57.7820 C.3     0  <0>0        0.0212
     11  C3         6.6700   36.9310   58.0410 C.3     0  <0>0        0.0467
     12  C4         5.9280   36.1240   59.1090 C.3     0  <0>0        0.0946
     13  C5         6.0560   36.8280   60.4610 C.3     0  <0>0        0.0297
     14  C6         4.4510   36.0140   58.7280 C.3     0  <0>0        0.0297
     15  O1         6.4970   34.8150   59.1970 O.3     0  <0>0       -0.3558
     16  C7         6.5000   34.2720   60.5180 C.3     0  <0>0        0.1739
     17  S1        12.2220   34.9770   63.3280 S.3     0  <0>0       -0.0144
     18  C14       13.4130   33.7500   62.7220 C.3     0  <0>0        0.4477
     19  F1        14.4280   33.5770   63.6690 F       0  <0>0       -0.1600
     20  F2        12.7600   32.5310   62.5100 F       0  <0>0       -0.1600
     21  F3        13.9710   34.1950   61.5180 F       0  <0>0       -0.1600
@<TRIPOS>BOND
     1     8     7    1
     2    10     9    1
     3    11     9    1
     4    11    12    1
     5     7     9    1
     6     7     1    1
     7    14    12    1
     8    12    15    1
     9    12    13    1
    10    15    16    1
    11     1     2   ar
    12     1     6   ar
    13     2     3   ar
    14     6     5   ar
    15     3     4   ar
    16    21    18    1
    17     5     4   ar
    18     4    17    1
    19    20    18    1
    20    18    17    1
    21    18    19    1
