@<TRIPOS>MOLECULE
ZINC09239983_replica-1.pdb
 30 32 0 0 0
SMALL
GASTEIGER

@<TRIPOS>ATOM
      1  C7         3.2080   33.6270   56.2590 C.2     0  <0>0        0.2112
      2  N2         2.2830   32.7760   55.8620 N.2     0  <0>0       -0.3797
      3  C8         1.5990   32.0390   56.7390 C.2     0  <0>0        0.1754
      4  C9         1.8720   32.1730   58.0770 C.3     0  <0>0        0.1295
      5  S1         3.1590   33.4120   58.0330 S.3     0  <0>0       -0.0592
      6  N1         4.0080   34.4670   55.5020 N.pl3   0  <0>0       -0.2830
      7  H5         3.7220   34.7400   54.6160 H       0  <0>0        0.1551
      8  C6         5.2290   34.9210   56.0140 C.ar    0  <0>0        0.0507
      9  C1         5.3000   36.1520   56.6520 C.ar    0  <0>0        0.0178
     10  C2         6.5030   36.5960   57.1620 C.ar    0  <0>0        0.0385
     11  C3         7.6440   35.8190   57.0270 C.ar    0  <0>0        0.1469
     12  C4         7.5750   34.5910   56.3850 C.ar    0  <0>0        0.0385
     13  C5         6.3710   34.1420   55.8790 C.ar    0  <0>0        0.0178
     14  O2         8.8310   36.2590   57.5240 O.3     0  <0>0       -0.4045
     15  C19        9.1880   35.8180   58.8360 C.3     0  <0>0        0.5753
     16  F1         9.5420   36.9210   59.6190 F       0  <0>0       -0.1328
     17  F2         8.0990   35.1620   59.4200 F       0  <0>0       -0.1328
     18  F3        10.2720   34.9380   58.7520 F       0  <0>0       -0.1328
     19  C10        0.5710   31.0930   56.2780 C.2     0  <0>0        0.2724
     20  O1        -0.3500   30.7890   57.0130 O.2     0  <0>0       -0.2677
     21  N3         0.6480   30.5630   55.0410 N.am    0  <0>0       -0.2987
     22  H7         1.3810   30.8050   54.4540 H       0  <0>0        0.1498
     23  C11       -0.3760   29.6230   54.5810 C.3     0  <0>0        0.0941
     24  C12        0.2190   28.2150   54.5080 C.3     0  <0>0        0.0429
     25  C13       -0.3340   27.4970   53.3040 C.2     0  <0>0       -0.0468
     26  C18       -1.2740   28.2490   52.4060 C.3     0  <0>0        0.0218
     27  C17       -1.3860   27.5420   51.0520 C.3     0  <0>0        0.0047
     28  C16       -1.6690   26.0560   51.3070 C.3     0  <0>0        0.0050
     29  C15       -0.4320   25.4300   51.9540 C.3     0  <0>0        0.0254
     30  C14        0.0270   26.2700   53.1100 C.2     0  <0>0       -0.0346
@<TRIPOS>BOND
     1    27    28    1
     2    27    26    1
     3    28    29    1
     4    29    30    1
     5    26    25    1
     6    30    25    2
     7    25    24    1
     8    22    21    1
     9    24    23    1
    10    23    21    1
    11     7     6    1
    12    21    19   am
    13     6     8    1
    14     6     1    1
    15     2     1    2
    16     2     3    2
    17    13     8   ar
    18    13    12   ar
    19     8     9   ar
    20     1     5    1
    21    19     3    1
    22    19    20    2
    23    12    11   ar
    24     9    10   ar
    25     3     4    1
    26    11    10   ar
    27    11    14    1
    28    14    15    1
    29     5     4    1
    30    18    15    1
    31    15    17    1
    32    15    16    1
