@<TRIPOS>MOLECULE
ZINC49065170_replica-1.pdb
 20 22 0 0 0
SMALL
GASTEIGER

@<TRIPOS>ATOM
      1  C8        -1.5080   30.5960   54.5960 C.2     0  <0>0        0.1923
      2  C9        -2.1280   30.3440   55.9110 C.2     0  <0>0        0.3738
      3  O1        -3.0920   29.6420   56.1510 O.2     0  <0>0       -0.2419
      4  O2        -1.3960   31.0600   56.7910 O.3     0  <0>0       -0.3911
      5  C10       -0.4170   31.7000   56.1210 C.2     0  <0>0        0.2848
      6  N1        -0.4620   31.4380   54.8410 N.2     0  <0>0       -0.3648
      7  C7        -1.8990   30.0860   53.3780 C.3     0  <0>0        0.0922
      8  C6        -1.4560   28.7500   52.9660 C.ar    0  <0>0       -0.0143
      9  C1        -1.7540   28.2740   51.6830 C.ar    0  <0>0       -0.0015
     10  C2        -1.3340   27.0180   51.3030 C.ar    0  <0>0        0.0298
     11  C3        -0.6190   26.2250   52.1870 C.ar    0  <0>0        0.1462
     12  C4        -0.3200   26.6890   53.4610 C.ar    0  <0>0        0.0617
     13  F1        -0.2120   24.9940   51.8090 F       0  <0>0       -0.2037
     14  C5        -0.7330   27.9430   53.8560 C.ar    0  <0>0        0.0051
     15 Br          0.6560   25.5980   54.6590 Br      0  <0>0       -0.0467
     16  C11        0.5820   32.5790   56.7520 C.ar    0  <0>0        0.0735
     17  C14        1.8780   32.6400   56.2950 C.ar    0  <0>0        0.0412
     18  S1         2.6190   33.7540   57.3070 S.2     0  <0>0       -0.0857
     19  C13        1.2520   34.1690   58.3690 C.ar    0  <0>0        0.0357
     20  C12        0.2480   33.4110   57.8820 C.ar    0  <0>0        0.0133
@<TRIPOS>BOND
     1    10     9   ar
     2    10    11   ar
     3     9     8   ar
     4    13    11    1
     5    11    12   ar
     6     8     7    1
     7     8    14   ar
     8     7     1    1
     9    12    14   ar
    10    12    15    1
    11     1     6    2
    12     1     2    1
    13     6     5    2
    14     2     3    2
    15     2     4    1
    16     5    16    1
    17     5     4    1
    18    17    16   ar
    19    17    18   ar
    20    16    20   ar
    21    18    19   ar
    22    20    19   ar
