@<TRIPOS>MOLECULE
ZINC00952461_replica-1.pdb
 31 34 0 0 0
SMALL
GASTEIGER

@<TRIPOS>ATOM
      1  C1         8.1540   36.1200   55.2770 C.3     0  <0>0        0.0626
      2  C2         7.6760   35.8230   56.6740 C.2     0  <0>0        0.1004
      3  C3         7.8110   36.7480   57.6360 C.3     0  <0>0        0.1438
      4  C4         7.3490   36.4890   59.0390 C.3     0  <0>0        0.0561
      5  C5         6.3970   35.3200   59.0910 C.3     0  <0>0        0.1109
      6  C6         6.3190   34.4480   58.0630 C.2     0  <0>0        0.0928
      7  N1         7.1070   34.6080   56.9550 N.2     0  <0>0       -0.4177
      8  C7         5.3670   33.2790   58.1050 C.3     0  <0>0        0.0552
      9  C8         5.1690   32.8290   59.5540 C.3     0  <0>0        0.0132
     10  C9         4.6380   34.0140   60.3660 C.3     0  <0>0        0.0653
     11  C10        5.5970   35.1660   60.2360 C.2     0  <0>0        0.1569
     12  O1         5.6820   35.9760   61.1370 O.2     0  <0>0       -0.2956
     13  C11        6.5080   32.3680   60.1320 C.3     0  <0>0        0.0008
     14  C12        4.1620   31.6770   59.6060 C.3     0  <0>0        0.0008
     15  C26        8.4050   38.0120   57.3170 C.1     0  <0>0        0.0793
     16  N2         8.8750   39.0140   57.0630 N.1     0  <0>0       -0.1955
     17  C13        8.5490   36.1890   59.9000 C.ar    0  <0>0       -0.0201
     18  C18        8.8510   37.0090   60.9710 C.ar    0  <0>0       -0.0011
     19  C17        9.9470   36.7320   61.7660 C.ar    0  <0>0        0.0366
     20  C16       10.7490   35.6370   61.4820 C.ar    0  <0>0        0.1390
     21  C15       10.4430   34.8160   60.4070 C.ar    0  <0>0        0.0366
     22  C14        9.3430   35.0930   59.6190 C.ar    0  <0>0       -0.0011
     23  O2        11.8310   35.3670   62.2600 O.3     0  <0>0       -0.4706
     24  C19       12.8030   34.4650   61.7290 C.3     0  <0>0        0.2320
     25  C20       12.8350   33.2120   62.5650 C.ar    0  <0>0        0.0213
     26  C25       11.6840   32.4670   62.7390 C.ar    0  <0>0        0.0016
     27  C24       11.7130   31.3170   63.5050 C.ar    0  <0>0        0.0294
     28  C23       12.8960   30.9110   64.0990 C.ar    0  <0>0        0.1401
     29  C22       14.0490   31.6590   63.9250 C.ar    0  <0>0        0.0294
     30  F1        12.9250   29.7880   64.8490 F       0  <0>0       -0.2042
     31  C21       14.0170   32.8080   63.1580 C.ar    0  <0>0        0.0016
@<TRIPOS>BOND
     1     1     2    1
     2     2     7    2
     3     2     3    1
     4     7     6    2
     5    16    15    3
     6    15     3    1
     7     3     4    1
     8     6     8    1
     9     6     5    1
    10     8     9    1
    11     4     5    1
    12     4    17    1
    13     5    11    1
    14     9    14    1
    15     9    13    1
    16     9    10    1
    17    22    17   ar
    18    22    21   ar
    19    17    18   ar
    20    11    10    1
    21    11    12    2
    22    21    20   ar
    23    18    19   ar
    24    20    19   ar
    25    20    23    1
    26    24    23    1
    27    24    25    1
    28    25    26   ar
    29    25    31   ar
    30    26    27   ar
    31    31    29   ar
    32    27    28   ar
    33    29    28   ar
    34    28    30    1
