@<TRIPOS>MOLECULE
ZINC62754823_replica-1.pdb
 20 20 0 0 0
SMALL
GASTEIGER

@<TRIPOS>ATOM
      1  C6         7.1370   36.5930   58.1950 C.3     0  <0>0       -0.0471
      2  C7         7.5760   38.0670   58.1020 C.3     0  <0>0       -0.0203
      3  C8         8.0950   38.4500   56.7030 C.3     0  <0>0       -0.0021
      4  C9         7.2580   37.8640   55.5990 C.3     0  <0>0       -0.0001
      5  C10        7.8940   36.5310   55.1560 C.3     0  <0>0        0.0005
      6  C11        7.5620   35.4330   56.0520 C.3     0  <0>0        0.0092
      7  C12        8.0870   35.6660   57.4860 C.3     0  <0>0        0.0847
      8  N1         7.0640   36.2060   59.6110 N.4     0  <0>0        0.3899
      9  H31        7.5610   35.3400   59.7480 H       0  <0>0       -0.0795
     10  C5         7.6720   37.2570   60.4370 C.3     0  <0>0       -0.0771
     11  C4         8.6340   36.6220   61.4420 C.3     0  <0>0       -0.0228
     12  C3        10.0590   36.6690   60.8850 C.3     0  <0>0       -0.0022
     13  C2        11.0350   36.1360   61.9360 C.3     0  <0>0       -0.0001
     14  C1        11.5140   34.7420   61.5260 C.3     0  <0>0       -0.0000
     15  C14        5.6580   36.0310   59.9970 C.3     0  <0>0       -0.0581
     16  C15        4.7810   36.0170   58.7430 C.3     0  <0>0       -0.0229
     17  C16        5.4960   34.7080   60.7470 C.3     0  <0>0       -0.0229
     18  C13        8.1540   34.3520   58.2190 C.2     0  <0>0        0.3623
     19  O1         9.0990   34.1090   58.9510 O.co2   0  <0>0       -0.2458
     20  O2         7.2640   33.5300   58.0790 O.co2   0  <0>0       -0.2458
@<TRIPOS>BOND
     1     5     4    1
     2     5     6    1
     3     4     3    1
     4     6     7    1
     5     3     2    1
     6     7     1    1
     7     7    18    1
     8    20    18   ar
     9     2     1    1
    10     1     8    1
    11    18    19   ar
    12    16    15    1
    13     8     9    1
    14     8    15    1
    15     8    10    1
    16    15    17    1
    17    10    11    1
    18    12    11    1
    19    12    13    1
    20    14    13    1
