@<TRIPOS>MOLECULE
ZINC49885358_replica-1.pdb
 23 24 0 0 0
SMALL
GASTEIGER

@<TRIPOS>ATOM
      1  C9        -1.1860   29.2510   53.8900 C.3     0  <0>0        0.1338
      2  C5        -0.9740   27.9340   53.1880 C.ar    0  <0>0       -0.0036
      3  C4        -1.5430   27.7110   51.9480 C.ar    0  <0>0       -0.0242
      4  C3        -1.3490   26.5040   51.3050 C.ar    0  <0>0       -0.0088
      5  C18       -2.3750   28.7860   51.2980 C.3     0  <0>0        0.0308
      6  C2        -0.5850   25.5170   51.9020 C.ar    0  <0>0       -0.0225
      7  C1        -0.3730   24.2010   51.2010 C.3     0  <0>0        0.0310
      8  C7        -0.0200   25.7380   53.1450 C.ar    0  <0>0       -0.0088
      9  C6        -0.2110   26.9480   53.7860 C.ar    0  <0>0       -0.0242
     10  C8         0.4100   27.1900   55.1380 C.3     0  <0>0        0.0308
     11  C10        0.1610   29.7940   54.3710 C.3     0  <0>0        0.0549
     12  C11       -0.0510   31.1360   55.0740 C.3     0  <0>0        0.0899
     13  N1         1.2310   31.6320   55.5790 N.pl3   0  <0>0       -0.3326
     14  H14        2.0590   31.2110   55.2970 H       0  <0>0        0.1468
     15  C12        1.2640   32.7110   56.4670 C.ar    0  <0>0        0.0448
     16  C17        0.2290   32.8960   57.3750 C.ar    0  <0>0        0.0166
     17  C16        0.2650   33.9610   58.2540 C.ar    0  <0>0        0.0309
     18  C15        1.3270   34.8480   58.2240 C.ar    0  <0>0        0.1402
     19  C14        2.3570   34.6680   57.3180 C.ar    0  <0>0        0.0309
     20  F1         1.3580   35.8920   59.0840 F       0  <0>0       -0.2042
     21  C13        2.3280   33.6020   56.4390 C.ar    0  <0>0        0.0166
     22  O1        -2.0500   29.0610   55.0110 O.3     0  <0>0       -0.3800
     23  H19       -2.2320   28.1330   55.2140 H       0  <0>0        0.2108
@<TRIPOS>BOND
     1     7     6    1
     2     5     3    1
     3     4     6   ar
     4     4     3   ar
     5     6     8   ar
     6     3     2   ar
     7     8     9   ar
     8     2     9   ar
     9     2     1    1
    10     9    10    1
    11     1    11    1
    12     1    22    1
    13    11    12    1
    14    22    23    1
    15    12    13    1
    16    14    13    1
    17    13    15    1
    18    21    15   ar
    19    21    19   ar
    20    15    16   ar
    21    19    18   ar
    22    16    17   ar
    23    18    17   ar
    24    18    20    1
