@<TRIPOS>MOLECULE
ZINC59181092_replica-1.pdb
 21 22 0 0 0
SMALL
GASTEIGER

@<TRIPOS>ATOM
      1  N1        -1.0860   29.8720   55.3740 N.pl3   0  <0>0       -0.3286
      2  H12       -1.9370   29.9320   55.8360 H       0  <0>0        0.1471
      3  C8        -0.6390   28.6390   54.8920 C.ar    0  <0>0        0.0446
      4  C7         0.0050   27.7510   55.7450 C.ar    0  <0>0        0.0143
      5  C6         0.4460   26.5330   55.2660 C.ar    0  <0>0        0.0009
      6  C5         0.2460   26.1970   53.9400 C.ar    0  <0>0       -0.0042
      7  C4        -0.3940   27.0780   53.0890 C.ar    0  <0>0       -0.0213
      8  C9        -0.8320   28.3000   53.5600 C.ar    0  <0>0        0.0100
      9  C2        -0.6090   26.7070   51.6440 C.3     0  <0>0        0.0224
     10  C1        -0.9260   25.2140   51.5420 C.3     0  <0>0        0.0047
     11  C3        -1.7780   27.5180   51.0780 C.3     0  <0>0        0.0047
     12  C10       -0.2710   31.0740   55.1800 C.3     0  <0>0        0.1224
     13  C11        0.0920   31.6560   56.5220 C.ar    0  <0>0        0.0471
     14  S1         0.7250   33.2750   56.9300 S.2     0  <0>0       -0.0734
     15  C13        0.8360   33.0670   58.5950 C.ar    0  <0>0        0.0872
     16  N2         0.4180   31.8380   58.7720 N.ar    0  <0>0       -0.2415
     17  C12        0.0350   31.0920   57.7560 C.ar    0  <0>0        0.1029
     18  C14        1.3080   34.0530   59.6330 C.3     0  <0>0        0.0412
     19  C15        2.6890   33.6360   60.1430 C.3     0  <0>0        0.0065
     20  C16        1.3940   35.4480   59.0090 C.3     0  <0>0        0.0065
     21  C17        0.3190   34.0770   60.8010 C.3     0  <0>0        0.0065
@<TRIPOS>BOND
     1    11     9    1
     2    10     9    1
     3     9     7    1
     4     7     8   ar
     5     7     6   ar
     6     8     3   ar
     7     6     5   ar
     8     3     1    1
     9     3     4   ar
    10    12     1    1
    11    12    13    1
    12     5     4   ar
    13     1     2    1
    14    13    14   ar
    15    13    17   ar
    16    14    15   ar
    17    17    16   ar
    18    15    16   ar
    19    15    18    1
    20    20    18    1
    21    18    19    1
    22    18    21    1
