@<TRIPOS>MOLECULE
ZINC19902859_replica-1.pdb
 24 26 0 0 0
SMALL
GASTEIGER

@<TRIPOS>ATOM
      1  C1         7.7290   32.7980   56.3610 C.3     0  <0>0        0.0470
      2  C2         7.2140   34.0350   57.0500 C.2     0  <0>0        0.0283
      3  C3         6.2880   33.9240   58.0180 C.2     0  <0>0        0.0706
      4  C4         5.7470   35.1350   58.7200 C.3     0  <0>0        0.0776
      5  C5         6.6510   36.3260   58.5180 C.2     0  <0>0        0.0298
      6  C6         7.5600   36.3400   57.5210 C.2     0  <0>0        0.0244
      7  N1         7.6920   35.2630   56.6850 N.pl3   0  <0>0       -0.3193
      8  C7         8.4520   37.5370   57.2990 C.3     0  <0>0        0.0414
      9  C8         8.7280   38.2260   58.6380 C.3     0  <0>0        0.0141
     10  C9         7.3890   38.6360   59.2590 C.3     0  <0>0        0.0693
     11  C10        6.5170   37.4180   59.3930 C.2     0  <0>0        0.1706
     12  O1         5.6810   37.3780   60.2740 O.2     0  <0>0       -0.2916
     13  H5         8.1890   35.3940   55.7130 H       0  <0>0        0.1516
     14  C11        4.3800   35.4550   58.1730 C.ar    0  <0>0       -0.0138
     15  C16        4.2360   35.8330   56.8500 C.ar    0  <0>0       -0.0013
     16  C15        2.9820   36.1270   56.3480 C.ar    0  <0>0        0.0293
     17  C14        1.8700   36.0430   57.1690 C.ar    0  <0>0        0.1401
     18  C13        2.0160   35.6650   58.4940 C.ar    0  <0>0        0.0293
     19  F1         0.6450   36.3300   56.6790 F       0  <0>0       -0.2042
     20  C12        3.2690   35.3660   58.9930 C.ar    0  <0>0       -0.0013
     21  C17        5.8140   32.6430   58.3810 C.2     0  <0>0        0.3388
     22  O2         6.2740   32.0780   59.3580 O.2     0  <0>0       -0.2452
     23  O3         4.8520   32.0450   57.6470 O.3     0  <0>0       -0.4415
     24  C18        3.6350   31.7160   58.3170 C.3     0  <0>0        0.2559
@<TRIPOS>BOND
     1    13     7    1
     2    16    15   ar
     3    16    17   ar
     4     1     2    1
     5    19    17    1
     6     7     2    1
     7     7     6    1
     8    15    14   ar
     9     2     3    2
    10    17    18   ar
    11     8     6    1
    12     8     9    1
    13     6     5    2
    14    23    24    1
    15    23    21    1
    16     3    21    1
    17     3     4    1
    18    14     4    1
    19    14    20   ar
    20    21    22    2
    21    18    20   ar
    22     5     4    1
    23     5    11    1
    24     9    10    1
    25    10    11    1
    26    11    12    2
