@<TRIPOS>MOLECULE
ZINC67450030_replica-1.pdb
 26 28 0 0 0
SMALL
GASTEIGER

@<TRIPOS>ATOM
      1  C8        -0.7120   31.3930   55.5210 C.2     0  <0>0        0.3130
      2  N2        -0.7080   31.0290   54.2680 N.2     0  <0>0       -0.3149
      3  C9        -1.8600   30.4230   53.9620 C.1     0  <0>0        0.1081
      4  N3        -2.6160   30.3940   55.0210 N.2     0  <0>0       -0.0113
      5  O1        -1.8790   31.0210   56.0610 O.2     0  <0>0       -0.3141
      6  C7         0.4070   32.1040   56.2370 C.3     0  <0>0        0.1914
      7  N1        -0.1340   33.2480   56.9750 N.pl3   0  <0>0       -0.3218
      8  H5        -1.0900   33.3250   57.1150 H       0  <0>0        0.1474
      9  C5         0.7290   34.2280   57.4770 C.ar    0  <0>0        0.0796
     10  C4         0.8140   34.4480   58.8490 C.ar    0  <0>0        0.1572
     11  C3         1.6700   35.4190   59.3410 C.ar    0  <0>0        0.0384
     12  C2         2.4390   36.1690   58.4700 C.ar    0  <0>0        0.0032
     13  C1         2.3560   35.9520   57.1060 C.ar    0  <0>0        0.0015
     14  C6         1.5040   34.9840   56.6080 C.ar    0  <0>0        0.0174
     15  O2         0.0570   33.7090   59.7060 O.3     0  <0>0       -0.4224
     16  C17        0.3090   33.8760   61.1020 C.3     0  <0>0        0.5087
     17  F1        -0.6520   34.7310   61.6520 F       0  <0>0       -0.1550
     18  F2         0.2440   32.6310   61.7390 F       0  <0>0       -0.1550
     19  C10       -2.2250   29.8650   52.6100 C.3     0  <0>0        0.1416
     20  C11       -1.6270   28.4910   52.4550 C.ar    0  <0>0       -0.0053
     21  C16       -0.8400   27.9630   53.4610 C.ar    0  <0>0        0.0082
     22  C15       -0.2960   26.6980   53.3220 C.ar    0  <0>0        0.0574
     23  C14       -0.5310   25.9680   52.1700 C.ar    0  <0>0        0.0114
     24 Cl          0.6860   26.0310   54.5880 Cl      0  <0>0       -0.0823
     25  C13       -1.3120   26.5000   51.1620 C.ar    0  <0>0        0.0006
     26  C12       -1.8600   27.7610   51.3050 C.ar    0  <0>0       -0.0031
@<TRIPOS>BOND
     1    25    26   ar
     2    25    23   ar
     3    26    20   ar
     4    23    22   ar
     5    20    19    1
     6    20    21   ar
     7    19     3    1
     8    22    21   ar
     9    22    24    1
    10     3     2    2
    11     3     4    2
    12     2     1    2
    13     4     5    1
    14     1     5    1
    15     1     6    1
    16     6     7    1
    17    14    13   ar
    18    14     9   ar
    19     7     8    1
    20     7     9    1
    21    13    12   ar
    22     9    10   ar
    23    12    11   ar
    24    10    11   ar
    25    10    15    1
    26    15    16    1
    27    16    17    1
    28    16    18    1
