@<TRIPOS>MOLECULE
ZINC64521482_replica-1.pdb
 24 25 0 0 0
SMALL
GASTEIGER

@<TRIPOS>ATOM
      1  N1        -1.6620   29.4700   53.9670 N.4     0  <0>0        0.3900
      2  C6        -2.9140   30.0530   54.4630 C.3     0  <0>0       -0.0769
      3  C7        -2.7990   30.3100   55.9680 C.3     0  <0>0       -0.0228
      4  C8        -1.6450   31.2820   56.2270 C.3     0  <0>0       -0.0026
      5  C9        -0.3570   30.6980   55.6380 C.3     0  <0>0       -0.0012
      6  C10       -0.5630   30.4250   54.1470 C.3     0  <0>0       -0.0751
      7  H20       -1.4590   28.6250   54.4800 H       0  <0>0       -0.0792
      8  C11        0.7880   31.6960   55.8230 C.3     0  <0>0        0.0873
      9  N2         0.2700   32.9260   56.4300 N.am    0  <0>0       -0.3037
     10  C12        1.1240   33.8790   56.8520 C.2     0  <0>0        0.2337
     11  O1         2.3200   33.7200   56.7290 O.2     0  <0>0       -0.2741
     12  H17       -0.6870   33.0530   56.5280 H       0  <0>0        0.1495
     13  C13        0.5920   35.1440   57.4750 C.3     0  <0>0        0.1501
     14  S2         1.5120   35.5000   58.9980 S.3     0  <0>0       -0.0316
     15  C14        0.7880   34.3730   60.2210 C.3     0  <0>0        0.4442
     16  F1        -0.0420   33.4520   59.5740 F       0  <0>0       -0.1602
     17  F2         1.8110   33.6900   60.8890 F       0  <0>0       -0.1602
     18  F3         0.0370   35.1080   61.1460 F       0  <0>0       -0.1602
     19  C5        -1.8030   29.1520   52.5400 C.3     0  <0>0       -0.0432
     20  C3        -1.3610   27.7330   52.2950 C.ar    0  <0>0       -0.0137
     21  C2        -1.6540   26.9140   51.2560 C.ar    0  <0>0        0.0006
     22  C1        -1.1290   25.6350   51.2410 C.ar    0  <0>0        0.0071
     23  C4        -0.3370   25.2370   52.2660 C.ar    0  <0>0        0.0351
     24  S1        -0.3130   26.6940   53.3000 S.2     0  <0>0       -0.0929
@<TRIPOS>BOND
     1    22    21   ar
     2    22    23   ar
     3    21    20   ar
     4    23    24   ar
     5    20    19    1
     6    20    24   ar
     7    19     1    1
     8     1     6    1
     9     1     2    1
    10     1     7    1
    11     6     5    1
    12     2     3    1
    13     5     8    1
    14     5     4    1
    15     8     9    1
    16     3     4    1
    17     9    12    1
    18     9    10   am
    19    11    10    2
    20    10    13    1
    21    13    14    1
    22    14    15    1
    23    16    15    1
    24    15    17    1
    25    15    18    1
