@<TRIPOS>MOLECULE
ZINC37306625_replica-1.pdb
 21 21 0 0 0
SMALL
GASTEIGER

@<TRIPOS>ATOM
      1  C6        10.9510   35.1220   60.9560 C.ar    0  <0>0        0.1385
      2  C7        10.5290   36.0870   61.8630 C.ar    0  <0>0        0.0369
      3  C8         9.5160   36.9560   61.5250 C.ar    0  <0>0        0.0048
      4  C9         8.9130   36.8680   60.2680 C.ar    0  <0>0        0.0237
      5  C10        9.3400   35.8960   59.3590 C.ar    0  <0>0        0.0761
      6  C11       10.3570   35.0330   59.7030 C.ar    0  <0>0        0.0408
      7  O1        11.9510   34.2670   61.2930 O.3     0  <0>0       -0.4755
      8  C5        12.0820   33.9360   62.6770 C.3     0  <0>0        0.2054
      9  C4        11.6470   32.4850   62.8980 C.3     0  <0>0        0.0473
     10  C2        12.8840   31.5920   62.9990 C.3     0  <0>0        0.0037
     11  C1        14.0800   32.4260   63.4620 C.3     0  <0>0        0.0001
     12  C3        12.6240   30.4710   64.0080 C.3     0  <0>0        0.0001
     13  C12        8.6920   35.7960   58.0010 C.3     0  <0>0        0.4187
     14  F1         8.8130   37.0210   57.3350 F       0  <0>0       -0.1659
     15  F2         9.3240   34.7950   57.2540 F       0  <0>0       -0.1659
     16  F3         7.3380   35.4790   58.1520 F       0  <0>0       -0.1659
     17  C13        7.8280   37.7970   59.9010 C.2     0  <0>0        0.0780
     18  S1         6.1970   37.3610   60.1830 S.2     0  <0>0       -0.0352
     19  N1         8.1210   38.9890   59.3450 N.am    0  <0>0       -0.3517
     20  H15        9.0450   39.2350   59.1850 H       0  <0>0        0.1428
     21  H16        7.4070   39.6000   59.1030 H       0  <0>0        0.1428
@<TRIPOS>BOND
     1    15    13    1
     2    14    13    1
     3    13    16    1
     4    13     5    1
     5    21    19    1
     6    20    19    1
     7    19    17    1
     8     5     6   ar
     9     5     4   ar
    10     6     1   ar
    11    17    18    2
    12    17     4    1
    13     4     3   ar
    14     1     7    1
    15     1     2   ar
    16     7     8    1
    17     3     2   ar
    18     8     9    1
    19     9    10    1
    20    10    11    1
    21    10    12    1
