@<TRIPOS>MOLECULE
ZINC19889313_replica-1.pdb
 25 28 0 0 0
SMALL
GASTEIGER

@<TRIPOS>ATOM
      1  C1         1.3420   35.9400   56.7040 C.3     0  <0>0        0.0310
      2  C2         2.6780   35.6490   57.3360 C.ar    0  <0>0       -0.0224
      3  C3         2.7500   34.9150   58.5060 C.ar    0  <0>0       -0.0073
      4  C4         3.9700   34.6550   59.0870 C.ar    0  <0>0       -0.0094
      5  C5         5.1520   35.1240   58.5110 C.ar    0  <0>0        0.0367
      6  C6         5.0660   35.8530   57.3220 C.ar    0  <0>0       -0.0099
      7  C7         3.8400   36.1140   56.7490 C.ar    0  <0>0       -0.0073
      8  C8         6.3280   36.3240   56.7100 C.3     0  <0>0        0.0254
      9  C9         6.4040   37.5500   55.8770 C.3     0  <0>0        0.0045
     10  C10        7.6020   38.0990   56.0420 C.3     0  <0>0        0.0004
     11  C11        8.4170   37.2810   57.0490 C.3     0  <0>0        0.0023
     12  C12        7.3080   36.6350   57.8850 C.3     0  <0>0        0.0262
     13  C13        7.5860   35.2860   58.5160 C.3     0  <0>0        0.0921
     14  N1         6.3450   34.8530   59.1780 N.pl3   0  <0>0       -0.3311
     15  C20        4.0300   33.8520   60.3620 C.3     0  <0>0        0.0323
     16  H13        6.3890   34.3430   60.1510 H       0  <0>0        0.1470
     17  C14        8.6920   35.4130   59.5320 C.ar    0  <0>0       -0.0045
     18  C19        8.5740   36.3160   60.5720 C.ar    0  <0>0       -0.0010
     19  C18        9.5880   36.4320   61.5050 C.ar    0  <0>0        0.0238
     20  C17       10.7200   35.6450   61.3970 C.ar    0  <0>0        0.1429
     21  C16       10.8370   34.7420   60.3580 C.ar    0  <0>0        0.0238
     22  C15        9.8230   34.6250   59.4250 C.ar    0  <0>0       -0.0010
     23  N2        11.8060   35.7690   62.3950 N.pl3   0  <0>0        0.0577
     24  O1        11.7760   36.6630   63.2210 O.2     0  <0>0       -0.1261
     25  O2        12.7290   34.9740   62.3910 O.2     0  <0>0       -0.1261
@<TRIPOS>BOND
     1     9    10    1
     2     9     8    1
     3    10    11    1
     4     1     2    1
     5     8     6    1
     6     8    12    1
     7     7     6   ar
     8     7     2   ar
     9    11    12    1
    10     6     5   ar
    11     2     3   ar
    12    12    13    1
    13     3     4   ar
    14     5     4   ar
    15     5    14    1
    16    13    14    1
    17    13    17    1
    18     4    15    1
    19    14    16    1
    20    22    17   ar
    21    22    21   ar
    22    17    18   ar
    23    21    20   ar
    24    18    19   ar
    25    20    19   ar
    26    20    23    1
    27    25    23    2
    28    23    24    2
