@<TRIPOS>MOLECULE
ZINC50186687_replica-1.pdb
 22 24 0 0 0
SMALL
GASTEIGER

@<TRIPOS>ATOM
      1  C8         7.4340   36.3990   56.5570 C.2     0  <0>0        0.1689
      2  N2         7.1480   37.5800   57.1650 N.am    0  <0>0       -0.2620
      3  H1         6.5250   38.1950   56.7490 H       0  <0>0        0.1569
      4  C9         7.7240   37.9030   58.3460 C.2     0  <0>0        0.2381
      5  O1         7.4770   38.9570   58.9030 O.2     0  <0>0       -0.2739
      6  C10        8.6590   36.9310   58.9320 C.3     0  <0>0        0.1513
      7  C11        9.3050   37.1680   60.1440 C.2     0  <0>0       -0.0036
      8  C12       10.1730   36.2230   60.6480 C.2     0  <0>0        0.0312
      9  C13       10.4060   35.0400   59.9560 C.2     0  <0>0        0.0087
     10  C14        9.7790   34.7880   58.7570 C.2     0  <0>0        0.0289
     11  C15        8.8950   35.7300   58.2270 C.2     0  <0>0        0.1226
     12  N3         8.2510   35.5190   57.0520 N.2     0  <0>0       -0.3944
     13 Br         11.0530   36.5380   62.2910 Br      0  <0>0       -0.0493
     14  C7         6.7640   36.0900   55.2430 C.3     0  <0>0        0.1300
     15  C5         5.4060   35.4900   55.5010 C.2     0  <0>0        0.1066
     16  N1         4.5410   36.0630   56.3140 N.2     0  <0>0       -0.4073
     17  C4         3.3620   35.5370   56.5360 C.2     0  <0>0        0.1335
     18  S1         3.3790   34.1450   55.5900 S.3     0  <0>0       -0.0795
     19  C6         5.0170   34.3330   54.9050 C.3     0  <0>0        0.1189
     20  C2         2.2600   36.0510   57.4260 C.3     0  <0>0        0.0585
     21  C1         0.9030   35.6740   56.8280 C.3     0  <0>0        0.0080
     22  C3         2.3960   35.4290   58.8170 C.3     0  <0>0        0.0080
@<TRIPOS>BOND
     1    19    15    1
     2    19    18    1
     3    14    15    1
     4    14     1    1
     5    15    16    2
     6    18    17    1
     7    16    17    2
     8    17    20    1
     9     1    12    2
    10     1     2    1
    11     3     2    1
    12    21    20    1
    13    12    11    2
    14     2     4   am
    15    20    22    1
    16    11    10    1
    17    11     6    1
    18     4     5    2
    19     4     6    1
    20    10     9    2
    21     6     7    1
    22     9     8    1
    23     7     8    2
    24     8    13    1
