@<TRIPOS>MOLECULE
ZINC16488870_replica-1.pdb
 21 23 0 0 0
SMALL
GASTEIGER

@<TRIPOS>ATOM
      1  N2        -0.3490   30.1250   57.3570 N.am    0  <0>0       -0.2495
      2  C9         0.6150   31.0630   57.4480 C.2     0  <0>0        0.2676
      3  O1         1.5190   31.0890   56.6340 O.2     0  <0>0       -0.2681
      4  H7        -1.0240   30.0560   58.0490 H       0  <0>0        0.1581
      5  C8        -0.3740   29.2640   56.2740 C.2     0  <0>0        0.2175
      6  S1         0.3230   27.6240   56.1310 S.3     0  <0>0       -0.0377
      7  C6        -0.1830   27.3110   54.4560 C.2     0  <0>0        0.0587
      8  C5        -0.8600   28.5060   54.1200 C.2     0  <0>0        0.1391
      9  C7        -0.0430   26.2660   53.5790 C.2     0  <0>0       -0.0129
     10  C4        -1.3970   28.5720   52.8130 C.2     0  <0>0        0.0284
     11  N1        -0.9130   29.4420   55.0910 N.2     0  <0>0       -0.3799
     12  C3        -1.2530   27.5220   51.9430 C.2     0  <0>0       -0.0194
     13  C2        -0.5810   26.3650   52.3090 C.3     0  <0>0        0.0447
     14  C1        -0.4380   25.2260   51.3320 C.3     0  <0>0        0.0094
     15  C10        0.5760   32.0530   58.5300 C.ar    0  <0>0        0.1150
     16  N3         0.5810   33.4210   58.3820 N.ar    0  <0>0       -0.3201
     17  C13        0.5360   33.9900   59.6120 C.ar    0  <0>0        0.0828
     18  C14        0.6280   34.1420   57.1080 C.3     0  <0>0        0.1306
     19  C12        0.5000   33.0100   60.5470 C.ar    0  <0>0        0.0533
     20  C11        0.5190   31.7800   59.8810 C.ar    0  <0>0        0.0300
     21 Br          0.4310   33.2610   62.4210 Br      0  <0>0       -0.0474
@<TRIPOS>BOND
     1    14    13    1
     2    12    13    1
     3    12    10    2
     4    13     9    1
     5    10     8    1
     6     9     7    2
     7     8     7    1
     8     8    11    2
     9     7     6    1
    10    11     5    2
    11     6     5    1
    12     5     1    1
    13     3     2    2
    14    18    16    1
    15     1     2   am
    16     1     4    1
    17     2    15    1
    18    16    15   ar
    19    16    17   ar
    20    15    20   ar
    21    17    19   ar
    22    20    19   ar
    23    19    21    1
