@<TRIPOS>MOLECULE
ZINC09590915_replica-1.pdb
 25 28 0 0 0
SMALL
GASTEIGER

@<TRIPOS>ATOM
      1  C9         9.3120   36.4210   60.5010 C.2     0  <0>0        0.1671
      2  N1         8.1120   36.5100   61.1310 N.am    0  <0>0       -0.2621
      3  H1         8.0880   36.6910   62.0840 H       0  <0>0        0.1569
      4  C10        6.9550   36.3540   60.4600 C.2     0  <0>0        0.2383
      5  O2         5.8870   36.4390   61.0400 O.2     0  <0>0       -0.2739
      6  C11        7.0030   36.0880   59.0520 C.3     0  <0>0        0.1537
      7  C12        5.8800   35.8860   58.1310 C.2     0  <0>0       -0.0268
      8  C13        6.1920   35.6440   56.8420 C.2     0  <0>0        0.0023
      9  S1         7.9650   35.6820   56.7780 S.3     0  <0>0       -0.0640
     10  C14        8.2860   36.0140   58.4910 C.2     0  <0>0        0.1514
     11  N2         9.3860   36.1850   59.2180 N.2     0  <0>0       -0.3881
     12  C15        5.2550   35.3840   55.7040 C.3     0  <0>0        0.0324
     13  C16        4.1580   36.4570   55.6960 C.3     0  <0>0        0.0052
     14  C17        3.0030   35.9700   56.5640 C.3     0  <0>0        0.0007
     15  C18        3.5370   35.1250   57.7200 C.3     0  <0>0        0.0044
     16  C19        4.4370   35.9610   58.6210 C.3     0  <0>0        0.0231
     17  C8        10.5800   36.6020   61.2940 C.3     0  <0>0        0.1012
     18  C5        11.0650   35.2610   61.7800 C.ar    0  <0>0       -0.0136
     19  C4        12.1830   35.1830   62.5900 C.ar    0  <0>0       -0.0007
     20  C3        12.6320   33.9550   63.0370 C.ar    0  <0>0        0.0366
     21  C2        11.9590   32.7990   62.6710 C.ar    0  <0>0        0.1387
     22  C7        10.8400   32.8780   61.8530 C.ar    0  <0>0        0.0366
     23  C6        10.3930   34.1090   61.4150 C.ar    0  <0>0       -0.0007
     24  O1        12.3980   31.5890   63.1090 O.3     0  <0>0       -0.4714
     25  C1        13.6520   31.5630   63.7930 C.3     0  <0>0        0.2525
@<TRIPOS>BOND
     1    13    12    1
     2    13    14    1
     3    12     8    1
     4    14    15    1
     5     9     8    1
     6     9    10    1
     7     8     7    2
     8    15    16    1
     9     7    16    1
    10     7     6    1
    11    10     6    1
    12    10    11    2
    13     6     4    1
    14    11     1    2
    15     4     5    2
    16     4     2   am
    17     1     2    1
    18     1    17    1
    19     2     3    1
    20    17    18    1
    21    23    18   ar
    22    23    22   ar
    23    18    19   ar
    24    22    21   ar
    25    19    20   ar
    26    21    20   ar
    27    21    24    1
    28    24    25    1
