@<TRIPOS>MOLECULE
ZINC57656978_replica-1.pdb
 24 25 0 0 0
SMALL
GASTEIGER

@<TRIPOS>ATOM
      1  C8        -1.9160   29.2490   55.9190 C.3     0  <0>0        0.1219
      2  N1        -0.6430   28.8950   55.2870 N.pl3   0  <0>0       -0.3292
      3  H8         0.1800   29.3140   55.5860 H       0  <0>0        0.1471
      4  C6        -0.6130   27.9550   54.2560 C.ar    0  <0>0        0.0405
      5  C5         0.0190   26.7320   54.4470 C.ar    0  <0>0       -0.0088
      6  C4         0.0480   25.8040   53.4230 C.ar    0  <0>0       -0.0034
      7  C19        0.6730   26.4190   55.7670 C.3     0  <0>0        0.0323
      8  C3        -0.5530   26.0900   52.2110 C.ar    0  <0>0       -0.0045
      9  C2        -1.1830   27.3060   52.0190 C.ar    0  <0>0       -0.0206
     10  C1        -1.8370   27.6140   50.6950 C.3     0  <0>0        0.0311
     11  C7        -1.2110   28.2410   53.0350 C.ar    0  <0>0        0.0097
     12  C9        -2.0520   30.7730   55.9750 C.3     0  <0>0        0.2172
     13  N2        -0.8710   31.3900   55.3640 N.pl3   0  <0>0        0.0366
     14  O1        -0.8030   31.5090   54.1630 O.2     0  <0>0       -0.1309
     15  O2         0.0350   31.7800   56.0630 O.2     0  <0>0       -0.1309
     16  C10       -1.9560   28.6900   57.3180 C.ar    0  <0>0       -0.0025
     17  C15       -2.7520   27.5970   57.6030 C.ar    0  <0>0       -0.0029
     18  C14       -2.7860   27.0820   58.8850 C.ar    0  <0>0       -0.0045
     19  C13       -2.0290   27.6650   59.8850 C.ar    0  <0>0       -0.0225
     20  C12       -1.2360   28.7610   59.6000 C.ar    0  <0>0       -0.0045
     21  C11       -1.2000   29.2740   58.3170 C.ar    0  <0>0       -0.0029
     22  C16       -2.0690   27.1060   61.2830 C.3     0  <0>0        0.0224
     23  C17       -2.4640   28.2100   62.2640 C.3     0  <0>0        0.0047
     24  C18       -3.0940   25.9720   61.3500 C.3     0  <0>0        0.0047
@<TRIPOS>BOND
     1    10     9    1
     2     9     8   ar
     3     9    11   ar
     4     8     6   ar
     5    11     4   ar
     6     6     5   ar
     7    14    13    2
     8     4     5   ar
     9     4     2    1
    10     5     7    1
    11     2     3    1
    12     2     1    1
    13    13    12    1
    14    13    15    2
    15     1    12    1
    16     1    16    1
    17    16    17   ar
    18    16    21   ar
    19    17    18   ar
    20    21    20   ar
    21    18    19   ar
    22    20    19   ar
    23    19    22    1
    24    22    24    1
    25    22    23    1
