@<TRIPOS>MOLECULE
ZINC32154922_replica-1.pdb
 22 23 0 0 0
SMALL
GASTEIGER

@<TRIPOS>ATOM
      1  C8         0.5440   31.4840   55.8470 C.2     0  <0>0        0.2425
      2  O1        -0.6020   31.8350   56.0300 O.2     0  <0>0       -0.2733
      3  N2         0.8050   30.4220   55.0580 N.am    0  <0>0       -0.3026
      4  H8         1.8450   30.1030   54.8920 H       0  <0>0        0.1495
      5  C7         1.6760   32.2320   56.5020 C.3     0  <0>0        0.1736
      6  N1         2.4590   32.9270   55.4760 N.pl3   0  <0>0       -0.3253
      7  H5         2.2670   32.7310   54.4110 H       0  <0>0        0.1473
      8  C6         3.4480   33.8410   55.8520 C.ar    0  <0>0        0.0450
      9  C1         4.7020   33.3870   56.2400 C.ar    0  <0>0        0.0152
     10  C2         5.6790   34.2930   56.6040 C.ar    0  <0>0        0.0127
     11  C3         5.4070   35.6490   56.5930 C.ar    0  <0>0        0.0578
     12  C4         4.1560   36.1040   56.2120 C.ar    0  <0>0        0.0127
     13 Cl          6.6350   36.7830   57.0590 Cl      0  <0>0       -0.0822
     14  C5         3.1770   35.2030   55.8420 C.ar    0  <0>0        0.0152
     15  C9        -0.2950   29.6950   54.4200 C.3     0  <0>0        0.0938
     16  C10       -0.0820   28.1900   54.5980 C.3     0  <0>0        0.0429
     17  C11       -0.5040   27.4710   53.3420 C.2     0  <0>0       -0.0468
     18  C16       -1.4050   28.1970   52.3860 C.3     0  <0>0        0.0218
     19  C15       -1.3770   27.5110   51.0160 C.3     0  <0>0        0.0047
     20  C14       -1.6090   26.0100   51.2230 C.3     0  <0>0        0.0050
     21  C13       -0.3980   25.4280   51.9570 C.3     0  <0>0        0.0254
     22  C12       -0.0720   26.2660   53.1590 C.2     0  <0>0       -0.0346
@<TRIPOS>BOND
     1    19    20    1
     2    19    18    1
     3    20    21    1
     4    21    22    1
     5    18    17    1
     6    22    17    2
     7    17    16    1
     8     7     6    1
     9    15    16    1
    10    15     3    1
    11     4     3    1
    12     3     1   am
    13     6     8    1
    14     6     5    1
    15    14     8   ar
    16    14    12   ar
    17     1     2    2
    18     1     5    1
    19     8     9   ar
    20    12    11   ar
    21     9    10   ar
    22    11    10   ar
    23    11    13    1
