@<TRIPOS>MOLECULE
ZINC37780659_replica-1.pdb
 21 22 0 0 0
SMALL
GASTEIGER

@<TRIPOS>ATOM
      1  C8         9.5040   35.0450   60.1420 C.ar    0  <0>0        0.0410
      2  C9         9.5270   36.3600   59.6950 C.ar    0  <0>0        0.0171
      3  C10        8.9830   36.6800   58.4670 C.ar    0  <0>0        0.0381
      4  C11        8.4120   35.6900   57.6800 C.ar    0  <0>0        0.1381
      5  C12        8.3880   34.3760   58.1270 C.ar    0  <0>0        0.0339
      6  C13        8.9380   34.0530   59.3510 C.ar    0  <0>0       -0.0057
      7  C14        8.9190   32.6250   59.8340 C.3     0  <0>0        0.0324
      8  N1        10.0560   34.7180   61.3860 N.pl3   0  <0>0       -0.3305
      9  H10        9.4940   34.3460   62.0830 H       0  <0>0        0.1471
     10  C6        11.4830   34.9400   61.6350 C.3     0  <0>0        0.0979
     11  C7        11.6580   36.1370   62.5690 C.3     0  <0>0        0.0266
     12  C5        12.0780   33.7120   62.2750 C.ar    0  <0>0        0.0246
     13  C4        13.3730   33.4470   62.5710 C.ar    0  <0>0        0.0039
     14  C3        13.6920   32.2400   63.1650 C.ar    0  <0>0        0.0024
     15  C2        12.6980   31.3570   63.4310 C.ar    0  <0>0        0.0074
     16  C1        12.7870   29.9910   64.0630 C.3     0  <0>0        0.0381
     17  S1        11.2590   32.2270   62.8310 S.2     0  <0>0       -0.0940
     18  O1         7.8750   36.0060   56.4720 O.3     0  <0>0       -0.4792
     19  C15        6.7680   36.9100   56.4710 C.3     0  <0>0        0.1661
     20  C16        7.1320   38.1630   55.6710 C.3     0  <0>0        0.0472
     21  C17        5.5570   36.2300   55.8300 C.3     0  <0>0        0.0472
@<TRIPOS>BOND
     1    20    19    1
     2    21    19    1
     3    19    18    1
     4    18     4    1
     5     4     5   ar
     6     4     3   ar
     7     5     6   ar
     8     3     2   ar
     9     6     7    1
    10     6     1   ar
    11     2     1   ar
    12     1     8    1
    13     8    10    1
    14     8     9    1
    15    10    12    1
    16    10    11    1
    17    12    13   ar
    18    12    17   ar
    19    13    14   ar
    20    17    15   ar
    21    14    15   ar
    22    15    16    1
