@<TRIPOS>MOLECULE
ZINC67256143_replica-1.pdb
 26 29 0 0 0
SMALL
GASTEIGER

@<TRIPOS>ATOM
      1  N1        -0.9200   28.8050   55.1420 N.4     0  <0>0        0.3919
      2  C9        -2.1570   29.3380   55.7710 C.3     0  <0>0       -0.0751
      3  C10       -1.8150   29.4380   57.2740 C.3     0  <0>0       -0.0039
      4  C11       -0.2780   29.5450   57.3300 C.3     0  <0>0        0.0674
      5  C12        0.1810   29.5010   55.8560 C.3     0  <0>0       -0.0554
      6  H21       -0.8540   27.8080   55.2760 H       0  <0>0       -0.0791
      7  N2         0.1230   30.8100   57.9510 N.am    0  <0>0       -0.2056
      8  C20        0.4830   30.8340   59.2680 C.1     0  <0>0        0.1006
      9  N3         0.8560   31.9270   59.8870 N.2     0  <0>0       -0.3507
     10  S1         0.4530   29.3240   60.1760 S.2     0  <0>0        0.0401
     11  C19        0.8970   33.1180   59.2560 C.2     0  <0>0        0.1331
     12  C14        0.5350   33.1880   57.8910 C.3     0  <0>0        0.1525
     13  C18        1.2900   34.2850   59.9180 C.2     0  <0>0        0.0293
     14  C13        0.1260   31.9470   57.2170 C.2     0  <0>0        0.2476
     15  C15        0.5710   34.4110   57.2240 C.2     0  <0>0       -0.0103
     16  O1        -0.1980   31.9430   56.0440 O.2     0  <0>0       -0.2731
     17  C16        0.9590   35.5360   57.8980 C.2     0  <0>0       -0.0036
     18  C17        1.3160   35.4710   59.2390 C.2     0  <0>0        0.0020
     19  C2        -0.8920   29.1340   53.7100 C.3     0  <0>0       -0.0346
     20  C1        -2.0990   30.0050   53.3630 C.3     0  <0>0       -0.0183
     21  C3        -0.9420   27.8620   52.9020 C.ar    0  <0>0       -0.0415
     22  C8        -0.2760   26.7340   53.3460 C.ar    0  <0>0       -0.0063
     23  C7        -0.3250   25.5680   52.6080 C.ar    0  <0>0       -0.0004
     24  C6        -1.0330   25.5290   51.4210 C.ar    0  <0>0       -0.0000
     25  C5        -1.6950   26.6570   50.9750 C.ar    0  <0>0       -0.0004
     26  C4        -1.6490   27.8240   51.7160 C.ar    0  <0>0       -0.0063
@<TRIPOS>BOND
     1    25    24   ar
     2    25    26   ar
     3    24    23   ar
     4    26    21   ar
     5    23    22   ar
     6    21    22   ar
     7    21    19    1
     8    20    19    1
     9    19     1    1
    10     1     6    1
    11     1     2    1
    12     1     5    1
    13     2     3    1
    14     5     4    1
    15    16    14    2
    16    14    12    1
    17    14     7   am
    18    15    12    1
    19    15    17    2
    20     3     4    1
    21     4     7    1
    22    12    11    1
    23    17    18    1
    24     7     8    1
    25    18    13    2
    26    11     9    2
    27    11    13    1
    28     8     9    2
    29     8    10    2
