@<TRIPOS>MOLECULE
ZINC21257301_replica-1.pdb
 37 41 0 0 0
SMALL
GASTEIGER

@<TRIPOS>ATOM
      1  C10        9.2410   33.6010   60.4500 C.3     0  <0>0        0.0356
      2  C11        9.6210   34.0250   59.0320 C.3     0  <0>0        0.0458
      3  C12        8.4600   33.7690   58.0850 C.2     0  <0>0        0.0262
      4  C13        7.6210   32.7410   58.2970 C.2     0  <0>0        0.0436
      5  C14        6.4340   32.3750   57.4390 C.3     0  <0>0        0.1186
      6  N1         6.3760   33.0620   56.1680 N.pl3   0  <0>0       -0.3262
      7  C15        6.2040   34.4440   56.1050 C.ar    0  <0>0        0.0586
      8  C16        5.0670   35.0090   55.5500 C.ar    0  <0>0        0.0156
      9  C17        4.9200   36.3850   55.5530 C.ar    0  <0>0        0.0013
     10  C18        5.8970   37.1920   56.1070 C.ar    0  <0>0        0.0014
     11  C19        7.0410   36.6320   56.6480 C.ar    0  <0>0        0.0158
     12  C20        7.1990   35.2580   56.6250 C.ar    0  <0>0        0.0614
     13  N2         8.3710   34.6380   57.0470 N.pl3   0  <0>0       -0.3150
     14  C29        7.8040   31.8910   59.4150 C.2     0  <0>0        0.1722
     15  O2         7.0470   30.9530   59.5670 O.2     0  <0>0       -0.2916
     16  C30        8.8990   32.1070   60.4150 C.3     0  <0>0        0.0736
     17  H16        6.4690   32.4940   55.2300 H       0  <0>0        0.1474
     18  H21        9.2700   34.8980   56.4680 H       0  <0>0        0.1520
     19  C7        10.4010   33.8390   61.3820 C.ar    0  <0>0       -0.0215
     20  C6        10.9000   32.7970   62.1410 C.ar    0  <0>0       -0.0011
     21  C5        11.9670   33.0100   62.9930 C.ar    0  <0>0        0.0366
     22  C4        12.5290   34.2740   63.0950 C.ar    0  <0>0        0.1384
     23  C9        12.0260   35.3180   62.3320 C.ar    0  <0>0        0.0366
     24  C8        10.9630   35.0980   61.4770 C.ar    0  <0>0       -0.0011
     25  O1        13.5750   34.4880   63.9360 O.3     0  <0>0       -0.4792
     26  C2        14.6850   33.5950   63.8310 C.3     0  <0>0        0.1661
     27  C1        15.7500   33.9830   64.8580 C.3     0  <0>0        0.0472
     28  C3        15.2780   33.6800   62.4230 C.3     0  <0>0        0.0472
     29  C21        5.1750   32.6880   58.2060 C.ar    0  <0>0       -0.0002
     30  C26        4.0220   31.9640   57.9660 C.ar    0  <0>0       -0.0011
     31  C25        2.8660   32.2500   58.6670 C.ar    0  <0>0        0.0143
     32  C24        2.8640   33.2660   59.6140 C.ar    0  <0>0        0.0479
     33  C23        4.0250   33.9920   59.8520 C.ar    0  <0>0        0.0143
     34  C22        5.1780   33.6970   59.1520 C.ar    0  <0>0       -0.0011
     35  N3         1.6970   33.5580   60.3250 N.pl3   0  <0>0       -0.3041
     36  C27        0.7530   34.5500   59.8050 C.3     0  <0>0        0.1122
     37  C28        1.4190   32.8730   61.5890 C.3     0  <0>0        0.1122
@<TRIPOS>BOND
     1    17     6    1
     2     8     9   ar
     3     8     7   ar
     4     9    10   ar
     5     7     6    1
     6     7    12   ar
     7    10    11   ar
     8     6     5    1
     9    18    13    1
    10    12    11   ar
    11    12    13    1
    12    13     3    1
    13     5    29    1
    14     5     4    1
    15    30    29   ar
    16    30    31   ar
    17     3     4    2
    18     3     2    1
    19    29    34   ar
    20     4    14    1
    21    31    32   ar
    22     2     1    1
    23    34    33   ar
    24    14    15    2
    25    14    16    1
    26    32    33   ar
    27    32    35    1
    28    36    35    1
    29    35    37    1
    30    16     1    1
    31     1    19    1
    32    19    24   ar
    33    19    20   ar
    34    24    23   ar
    35    20    21   ar
    36    23    22   ar
    37    28    26    1
    38    21    22   ar
    39    22    25    1
    40    26    25    1
    41    26    27    1
