@<TRIPOS>MOLECULE
ZINC09110373_replica-1.pdb
 24 28 0 0 0
SMALL
GASTEIGER

@<TRIPOS>ATOM
      1  C1        -1.4680   27.2830   51.0060 C.ar    0  <0>0        0.0001
      2  C2        -1.0560   25.9690   51.0800 C.ar    0  <0>0        0.0001
      3  C3        -0.4750   25.4820   52.2450 C.ar    0  <0>0        0.0029
      4  C4        -0.3100   26.3180   53.3340 C.ar    0  <0>0        0.0373
      5  C5        -0.7300   27.6550   53.2590 C.ar    0  <0>0        0.0286
      6  C6        -1.3070   28.1310   52.0950 C.ar    0  <0>0        0.0023
      7  C7        -0.4230   28.2950   54.5710 C.2     0  <0>0        0.1162
      8  C8         0.1610   27.3360   55.3860 C.3     0  <0>0        0.1227
      9  C9         0.2600   26.1200   54.6940 C.2     0  <0>0        0.1800
     10  O1         0.7310   25.0850   55.1290 O.2     0  <0>0       -0.2909
     11  C10        0.5620   27.7450   56.7880 C.3     0  <0>0        0.0696
     12  C11        0.2750   29.1870   57.1630 C.2     0  <0>0        0.0429
     13  C12        0.5940   29.6420   58.3910 C.2     0  <0>0        0.1716
     14  C13        0.3190   31.0670   58.7910 C.3     0  <0>0        0.0693
     15  C14        0.3830   31.9590   57.5470 C.3     0  <0>0        0.0155
     16  C15       -0.6290   31.4480   56.5190 C.3     0  <0>0        0.0592
     17  C16       -0.3230   30.0040   56.1930 C.2     0  <0>0        0.1077
     18  N1        -0.6260   29.5400   55.0040 N.2     0  <0>0       -0.4103
     19  O2         1.1660   28.8050   59.2770 O.2     0  <0>0       -0.2916
     20  C17       -0.1590   26.8520   57.7650 C.ar    0  <0>0        0.0120
     21  S1        -1.8660   26.9030   58.2850 S.2     0  <0>0       -0.0904
     22  C20       -1.8270   25.5200   59.4140 C.ar    0  <0>0        0.0351
     23  C19       -0.5340   25.1220   59.3240 C.ar    0  <0>0        0.0072
     24  C18        0.3210   25.8040   58.4790 C.ar    0  <0>0        0.0030
@<TRIPOS>BOND
     1     1     2   ar
     2     1     6   ar
     3     2     3   ar
     4     6     5   ar
     5     3     4   ar
     6     5     4   ar
     7     5     7    1
     8     4     9    1
     9     7    18    2
    10     7     8    1
    11     9    10    2
    12     9     8    1
    13    18    17    2
    14     8    11    1
    15    17    16    1
    16    17    12    1
    17    16    15    1
    18    11    12    1
    19    11    20    1
    20    12    13    2
    21    15    14    1
    22    20    21   ar
    23    20    24   ar
    24    21    22   ar
    25    13    14    1
    26    13    19    1
    27    24    23   ar
    28    23    22   ar
