@<TRIPOS>MOLECULE
ZINC37014563_replica-1.pdb
 22 23 0 0 0
SMALL
GASTEIGER

@<TRIPOS>ATOM
      1  C9         9.2580   35.6540   58.4560 C.ar    0  <0>0        0.0407
      2  C10        9.9070   34.8070   59.3410 C.ar    0  <0>0        0.0187
      3  C11       10.2840   35.2750   60.5990 C.ar    0  <0>0        0.0563
      4  C12       10.0060   36.5960   60.9590 C.ar    0  <0>0        0.0045
      5  C13        9.3590   37.4310   60.0710 C.ar    0  <0>0       -0.0029
      6  C14        8.9900   36.9680   58.8220 C.ar    0  <0>0       -0.0087
      7  C15        8.2910   37.8890   57.8560 C.3     0  <0>0        0.0323
      8  N1         8.8790   35.1890   57.1940 N.pl3   0  <0>0       -0.3343
      9  H18        9.4010   35.4280   56.4130 H       0  <0>0        0.1468
     10  C6         7.6940   34.3410   57.0520 C.3     0  <0>0        0.0690
     11  C5         6.7220   34.9830   56.0600 C.3     0  <0>0        0.0195
     12  C3         5.6890   35.8140   56.8230 C.3     0  <0>0        0.0016
     13  C4         4.3950   35.8920   56.0090 C.3     0  <0>0        0.0001
     14  C2         5.4030   35.1560   58.1750 C.3     0  <0>0        0.0001
     15  C1         5.3010   36.2340   59.2560 C.3     0  <0>0        0.0000
     16  C7         8.1110   32.9620   56.5370 C.3     0  <0>0        0.0195
     17  C8         8.0340   31.9460   57.6790 C.3     0  <0>0        0.0017
     18  C16       10.9750   34.3780   61.5480 C.ar    0  <0>0        0.2501
     19  O1        10.6860   33.0810   61.7800 O.2     0  <0>0       -0.4121
     20  C17       11.5590   32.6580   62.7080 C.ar    0  <0>0        0.3059
     21  N3        12.3270   33.6650   63.0170 N.ar    0  <0>0       -0.1019
     22  N2        11.9830   34.6950   62.3280 N.ar    0  <0>0       -0.1068
@<TRIPOS>BOND
     1    13    12    1
     2    11    12    1
     3    11    10    1
     4     9     8    1
     5    16    10    1
     6    16    17    1
     7    12    14    1
     8    10     8    1
     9     8     1    1
    10     7     6    1
    11    14    15    1
    12     1     6   ar
    13     1     2   ar
    14     6     5   ar
    15     2     3   ar
    16     5     4   ar
    17     3     4   ar
    18     3    18    1
    19    18    19   ar
    20    18    22   ar
    21    19    20   ar
    22    22    21   ar
    23    20    21   ar
