@<TRIPOS>MOLECULE
ZINC49924675_replica-1.pdb
 25 26 0 0 0
SMALL
GASTEIGER

@<TRIPOS>ATOM
      1  C11        7.1790   37.4170   55.7080 C.3     0  <0>0        0.1344
      2  C8         7.8850   37.2360   57.0260 C.ar    0  <0>0        0.0043
      3  C7         7.7070   38.1610   58.0390 C.ar    0  <0>0       -0.0023
      4  C6         8.3550   37.9940   59.2480 C.ar    0  <0>0       -0.0045
      5  C5         9.1810   36.9040   59.4460 C.ar    0  <0>0       -0.0225
      6  C10        9.3640   35.9830   58.4310 C.ar    0  <0>0       -0.0045
      7  C9         8.7130   36.1460   57.2230 C.ar    0  <0>0       -0.0023
      8  C3         9.8880   36.7230   60.7640 C.3     0  <0>0        0.0223
      9  C4         8.8930   36.9320   61.9080 C.3     0  <0>0        0.0047
     10  C2        10.4650   35.3080   60.8430 C.3     0  <0>0        0.0044
     11  C1        11.5350   35.2530   61.9350 C.3     0  <0>0        0.0003
     12  C12        5.7560   36.8620   55.8110 C.3     0  <0>0        0.0550
     13  C13        5.7970   35.3360   55.7280 C.3     0  <0>0        0.0899
     14  N1         5.0950   34.7650   56.8810 N.pl3   0  <0>0       -0.3328
     15  H19        4.1310   34.6600   56.8590 H       0  <0>0        0.1468
     16  C14        5.8150   34.3690   58.0110 C.ar    0  <0>0        0.0403
     17  C19        5.6700   35.0620   59.2050 C.ar    0  <0>0       -0.0088
     18  C18        6.3790   34.6650   60.3230 C.ar    0  <0>0       -0.0034
     19  C20        4.7360   36.2420   59.2850 C.3     0  <0>0        0.0323
     20  C17        7.2410   33.5870   60.2490 C.ar    0  <0>0       -0.0045
     21  C16        7.3920   32.8990   59.0590 C.ar    0  <0>0       -0.0206
     22  C15        6.6810   33.2850   57.9410 C.ar    0  <0>0        0.0097
     23  C21        8.3320   31.7230   58.9840 C.3     0  <0>0        0.0311
     24  O1         7.8900   36.7160   54.6860 O.3     0  <0>0       -0.3800
     25  H29        7.3510   36.4910   53.9150 H       0  <0>0        0.2108
@<TRIPOS>BOND
     1    25    24    1
     2    24     1    1
     3     1    12    1
     4     1     2    1
     5    13    12    1
     6    13    14    1
     7    15    14    1
     8    14    16    1
     9     2     7   ar
    10     2     3   ar
    11     7     6   ar
    12    22    16   ar
    13    22    21   ar
    14    16    17   ar
    15     3     4   ar
    16     6     5   ar
    17    23    21    1
    18    21    20   ar
    19    17    19    1
    20    17    18   ar
    21     4     5   ar
    22     5     8    1
    23    20    18   ar
    24     8    10    1
    25     8     9    1
    26    10    11    1
