@<TRIPOS>MOLECULE
ZINC57568123_replica-1.pdb
 21 21 0 0 0
SMALL
GASTEIGER

@<TRIPOS>ATOM
      1  C6        11.3230   34.2710   61.0300 C.3     0  <0>0        0.1226
      2  C7        10.5280   33.1740   61.6070 C.1     0  <0>0        0.0771
      3  N2         9.9150   32.3280   62.0510 N.1     0  <0>0       -0.1955
      4  C5        12.0360   35.0290   62.1520 C.3     0  <0>0        0.1045
      5  C4        13.3640   34.3750   62.4360 C.2     0  <0>0        0.2238
      6  N1        13.6300   33.8950   63.6670 N.am    0  <0>0       -0.3059
      7  H9        12.9670   33.9710   64.3700 H       0  <0>0        0.1494
      8  O1        14.1930   34.2800   61.5560 O.2     0  <0>0       -0.2751
      9  C2        14.9200   33.2590   63.9420 C.3     0  <0>0        0.0717
     10  C1        15.7470   34.1610   64.8620 C.3     0  <0>0        0.0213
     11  C3        14.6890   31.9090   64.6240 C.3     0  <0>0        0.0213
     12  C8        10.4140   35.2140   60.2860 C.ar    0  <0>0       -0.0079
     13  C13        9.9110   34.8590   59.0490 C.ar    0  <0>0       -0.0036
     14  C12        9.0720   35.7220   58.3690 C.ar    0  <0>0       -0.0046
     15  C11        8.7440   36.9450   58.9220 C.ar    0  <0>0       -0.0228
     16  C10        9.2500   37.3030   60.1580 C.ar    0  <0>0       -0.0046
     17  C9        10.0850   36.4380   60.8390 C.ar    0  <0>0       -0.0036
     18  C14        7.8330   37.8870   58.1790 C.3     0  <0>0        0.0189
     19  C15        7.1860   38.8580   59.1690 C.3     0  <0>0        0.0044
     20  C16        8.6430   38.6750   57.1480 C.3     0  <0>0        0.0044
     21  C17        6.7420   37.0860   57.4650 C.3     0  <0>0        0.0044
@<TRIPOS>BOND
     1    20    18    1
     2    21    18    1
     3    18    15    1
     4    18    19    1
     5    14    15   ar
     6    14    13   ar
     7    15    16   ar
     8    13    12   ar
     9    16    17   ar
    10    12    17   ar
    11    12     1    1
    12     1     2    1
    13     1     4    1
    14     8     5    2
    15     2     3    3
    16     4     5    1
    17     5     6   am
    18     6     9    1
    19     6     7    1
    20     9    11    1
    21     9    10    1
