@<TRIPOS>MOLECULE
ZINC59404793_replica-1.pdb
 22 25 0 0 0
SMALL
GASTEIGER

@<TRIPOS>ATOM
      1  C10        9.0450   36.3330   58.6100 C.ar    0  <0>0        0.0371
      2  C11        8.9820   37.6450   59.0980 C.ar    0  <0>0        0.0032
      3  C12        8.3840   38.6330   58.3470 C.ar    0  <0>0        0.0033
      4  C13        7.8400   38.3390   57.1060 C.ar    0  <0>0        0.0400
      5  C14        7.8950   37.0460   56.6120 C.ar    0  <0>0        0.1722
      6  C15        8.4990   36.0430   57.3550 C.ar    0  <0>0        0.1721
      7  O1         8.5550   34.7760   56.8560 O.3     0  <0>0       -0.4723
      8  C16        7.3050   34.0900   56.7480 C.3     0  <0>0        0.2094
      9  C17        6.6030   34.4510   55.4490 C.3     0  <0>0        0.0946
     10  C18        6.2110   35.9190   55.3910 C.3     0  <0>0        0.2094
     11  O2         7.3620   36.7530   55.3910 O.3     0  <0>0       -0.4723
     12  C9         9.6830   35.2740   59.4060 C.2     0  <0>0        0.0063
     13  C8        10.4410   35.5970   60.4730 C.2     0  <0>0        0.0390
     14  C7        11.0770   34.5420   61.2670 C.2     0  <0>0        0.1611
     15  N1        12.2810   34.5230   61.8060 N.2     0  <0>0       -0.3949
     16  C5        12.7370   33.4800   62.5160 C.2     0  <0>0        0.1374
     17  C4        11.8440   32.3910   62.6540 C.2     0  <0>0        0.0574
     18  C6        13.9990   33.3350   63.1420 C.2     0  <0>0        0.0283
     19  C3        12.1690   31.2530   63.3510 C.2     0  <0>0       -0.0123
     20  S1        10.4190   32.9520   61.7520 S.3     0  <0>0       -0.0532
     21  C2        13.4110   31.1520   63.9470 C.3     0  <0>0        0.0527
     22  C1        14.3090   32.2050   63.8290 C.2     0  <0>0       -0.0188
@<TRIPOS>BOND
     1    10    11    1
     2    10     9    1
     3    11     5    1
     4     9     8    1
     5     5     4   ar
     6     5     6   ar
     7     8     7    1
     8     7     6    1
     9     4     3   ar
    10     6     1   ar
    11     3     2   ar
    12     1     2   ar
    13     1    12    1
    14    12    13    2
    15    13    14    1
    16    14    20    1
    17    14    15    2
    18    20    17    1
    19    15    16    2
    20    16    17    1
    21    16    18    1
    22    17    19    2
    23    18    22    2
    24    19    21    1
    25    22    21    1
