@<TRIPOS>MOLECULE
ZINC64418724_replica-1.pdb
 27 30 0 0 0
SMALL
GASTEIGER

@<TRIPOS>ATOM
      1  C8         0.9400   31.7150   56.1350 C.3     0  <0>0        0.1402
      2  C7         0.7250   31.8550   57.6190 C.2     0  <0>0        0.1704
      3  N1         0.7190   33.0920   58.1780 N.am    0  <0>0       -0.2620
      4  C6         0.5310   33.2620   59.5000 C.2     0  <0>0        0.2383
      5  H1         0.8550   33.8700   57.6150 H       0  <0>0        0.1569
      6  C5         0.3320   32.1080   60.3260 C.3     0  <0>0        0.1537
      7  O1         0.5300   34.3800   59.9880 O.2     0  <0>0       -0.2739
      8  C2         0.1110   32.0280   61.7590 C.2     0  <0>0       -0.0264
      9  C4         0.3580   30.8710   59.6590 C.2     0  <0>0        0.1514
     10  C1         0.0650   33.2820   62.5950 C.3     0  <0>0        0.0275
     11  C3        -0.0580   30.8250   62.3300 C.2     0  <0>0        0.0027
     12  S1         0.0790   29.6940   60.9580 S.3     0  <0>0       -0.0639
     13  C18       -0.3030   30.5060   63.7820 C.3     0  <0>0        0.0376
     14  N2         0.5550   30.7830   58.3470 N.2     0  <0>0       -0.3879
     15  C9        -0.1450   30.8480   55.5490 C.2     0  <0>0        0.1428
     16  S2        -1.8060   30.9530   55.7910 S.3     0  <0>0       -0.0787
     17  C11       -2.2960   29.5870   54.7500 C.3     0  <0>0        0.1232
     18  C10       -1.0750   29.1600   54.3030 C.2     0  <0>0        0.1248
     19  N3        -0.0180   29.8310   54.7370 N.2     0  <0>0       -0.4029
     20  C12       -0.9410   28.0060   53.3800 C.ar    0  <0>0        0.0811
     21  C17       -0.2290   26.8730   53.7730 C.ar    0  <0>0        0.1444
     22  C16       -0.1140   25.7990   52.9100 C.ar    0  <0>0        0.0299
     23  F1         0.3420   26.8230   54.9960 F       0  <0>0       -0.2040
     24  C15       -0.6920   25.8500   51.6550 C.ar    0  <0>0        0.0046
     25  C14       -1.3950   26.9730   51.2570 C.ar    0  <0>0        0.0299
     26  C13       -1.5230   28.0510   52.1130 C.ar    0  <0>0        0.1444
     27  F2        -2.2100   29.1480   51.7220 F       0  <0>0       -0.2040
@<TRIPOS>BOND
     1    25    24   ar
     2    25    26   ar
     3    24    22   ar
     4    27    26    1
     5    26    20   ar
     6    22    21   ar
     7    20    21   ar
     8    20    18    1
     9    21    23    1
    10    18    19    2
    11    18    17    1
    12    19    15    2
    13    17    16    1
    14    15    16    1
    15    15     1    1
    16     1     2    1
    17     5     3    1
    18     2     3    1
    19     2    14    2
    20     3     4   am
    21    14     9    2
    22     4     7    2
    23     4     6    1
    24     9     6    1
    25     9    12    1
    26     6     8    1
    27    12    11    1
    28     8    11    2
    29     8    10    1
    30    11    13    1
