@<TRIPOS>MOLECULE
ZINC38710968_replica-1.pdb
 22 25 0 0 0
SMALL
GASTEIGER

@<TRIPOS>ATOM
      1  C8         0.2920   30.2310   55.5610 C.2     0  <0>0        0.2110
      2  N2         0.2770   29.1280   54.8330 N.2     0  <0>0       -0.3843
      3  C9        -0.6520   28.9090   53.8990 C.2     0  <0>0        0.1209
      4  C10       -1.6120   29.8830   53.7350 C.3     0  <0>0        0.1080
      5  S1        -1.1390   31.1000   54.9250 S.3     0  <0>0       -0.0607
      6  C11       -2.7450   29.8290   52.7730 C.3     0  <0>0        0.0231
      7  C12       -2.3300   29.0260   51.5380 C.3     0  <0>0        0.0277
      8  C13       -1.5990   27.7650   51.9100 C.ar    0  <0>0       -0.0200
      9  C14       -0.7690   27.6980   53.0270 C.ar    0  <0>0        0.0224
     10  C15       -0.0730   26.5370   53.3310 C.ar    0  <0>0        0.0019
     11  C16       -0.2200   25.4240   52.5250 C.ar    0  <0>0        0.0001
     12  C17       -1.0600   25.4780   51.4270 C.ar    0  <0>0       -0.0003
     13  C18       -1.7440   26.6380   51.1190 C.ar    0  <0>0       -0.0042
     14  N1         1.1770   30.6110   56.5580 N.pl3   0  <0>0       -0.2833
     15  H8         1.9110   30.0260   56.8030 H       0  <0>0        0.1551
     16  C7         1.0120   31.8360   57.2090 C.ar    0  <0>0        0.0464
     17  C2         0.5630   31.8720   58.5230 C.ar    0  <0>0       -0.0084
     18  C1         0.2520   30.5880   59.2490 C.3     0  <0>0        0.0323
     19  C3         0.4080   33.0840   59.1660 C.ar    0  <0>0       -0.0030
     20  C4         0.6930   34.2620   58.5010 C.ar    0  <0>0       -0.0002
     21  C5         1.1350   34.2310   57.1920 C.ar    0  <0>0        0.0013
     22  C6         1.2930   33.0220   56.5420 C.ar    0  <0>0        0.0144
@<TRIPOS>BOND
     1    13    12   ar
     2    13     8   ar
     3    12    11   ar
     4     7     8    1
     5     7     6    1
     6     8     9   ar
     7    11    10   ar
     8     6     4    1
     9     9    10   ar
    10     9     3    1
    11     4     3    1
    12     4     5    1
    13     3     2    2
    14     2     1    2
    15     5     1    1
    16     1    14    1
    17    22    21   ar
    18    22    16   ar
    19    14    15    1
    20    14    16    1
    21    21    20   ar
    22    16    17   ar
    23    20    19   ar
    24    17    19   ar
    25    17    18    1
