@<TRIPOS>MOLECULE
ZINC62442562_replica-1.pdb
 21 21 0 0 0
SMALL
GASTEIGER

@<TRIPOS>ATOM
      1  C4         2.7820   34.7490   58.8110 C.3     0  <0>0        0.1494
      2  C17        1.5000   34.5330   59.5020 C.1     0  <0>0        0.0884
      3  N2         0.5100   34.3650   60.0340 N.1     0  <0>0       -0.1945
      4  N1         2.8200   36.1110   58.2640 N.3     0  <0>0       -0.2866
      5  H12        3.7090   36.5520   58.4500 H       0  <0>0        0.1241
      6  C3         2.5240   36.1080   56.8250 C.3     0  <0>0        0.0693
      7  C2         3.8230   36.2900   56.0360 C.3     0  <0>0        0.0171
      8  C1         3.9000   35.2360   54.9300 C.3     0  <0>0        0.0015
      9  C5         3.9320   34.5670   59.8040 C.3     0  <0>0        0.0634
     10  C6         5.2660   34.6660   59.0620 C.3     0  <0>0        0.1446
     11  O1         5.7160   36.0220   59.0680 O.3     0  <0>0       -0.3562
     12  C7         7.1270   36.1670   59.2360 C.3     0  <0>0        0.1151
     13  C12        7.8350   35.8170   57.9250 C.3     0  <0>0        0.0272
     14  C11        9.3470   35.9720   58.1050 C.3     0  <0>0        0.0024
     15  C10        9.8280   35.0300   59.2110 C.3     0  <0>0        0.0002
     16  C9         9.1200   35.3790   60.5210 C.3     0  <0>0        0.0024
     17  C8         7.6080   35.2250   60.3420 C.3     0  <0>0        0.0295
     18  C16        9.4420   36.8240   60.9070 C.3     0  <0>0        0.0001
     19  C13        7.3540   36.7600   56.8200 C.3     0  <0>0        0.0023
     20  C14        7.9520   38.1510   57.0400 C.3     0  <0>0        0.0001
     21  C15        7.8040   36.2210   55.4600 C.3     0  <0>0        0.0001
@<TRIPOS>BOND
     1     8     7    1
     2    21    19    1
     3     7     6    1
     4    19    20    1
     5    19    13    1
     6     6     4    1
     7    13    14    1
     8    13    12    1
     9    14    15    1
    10     4     5    1
    11     4     1    1
    12     1     2    1
    13     1     9    1
    14    10    11    1
    15    10     9    1
    16    11    12    1
    17    15    16    1
    18    12    17    1
    19     2     3    3
    20    17    16    1
    21    16    18    1
