@<TRIPOS>MOLECULE
ZINC37954168_replica-1.pdb
 22 23 0 0 0
SMALL
GASTEIGER

@<TRIPOS>ATOM
      1  C4        -0.6930   29.1410   55.5420 C.3     0  <0>0        0.1639
      2  C2        -2.1600   29.1580   55.1050 C.3     0  <0>0        0.0307
      3  C1        -3.0540   29.3480   56.3320 C.3     0  <0>0        0.0025
      4  C3        -2.3860   30.3120   54.1250 C.3     0  <0>0        0.0025
      5  C5        -0.5030   28.1110   56.6260 C.ar    0  <0>0        0.0038
      6  C10        0.6910   28.0510   57.3200 C.ar    0  <0>0       -0.0022
      7  C9         0.8630   27.1100   58.3180 C.ar    0  <0>0       -0.0003
      8  C8        -0.1540   26.2220   58.6130 C.ar    0  <0>0       -0.0000
      9  C7        -1.3460   26.2780   57.9140 C.ar    0  <0>0       -0.0003
     10  C6        -1.5200   27.2230   56.9210 C.ar    0  <0>0       -0.0022
     11  C11       -0.3100   30.5010   56.0670 C.2     0  <0>0        0.3369
     12  O1        -0.8270   30.9280   57.0710 O.2     0  <0>0       -0.2480
     13  O2         0.6060   31.2360   55.4180 O.3     0  <0>0       -0.4431
     14  C12        1.3350   32.1920   56.1890 C.3     0  <0>0        0.2557
     15  N1         0.1540   28.8030   54.3940 N.pl3   0  <0>0       -0.3239
     16  H16        0.8950   29.3800   54.1510 H       0  <0>0        0.1475
     17  C13       -0.1050   27.6490   53.6520 C.ar    0  <0>0        0.0451
     18  C18        0.3770   26.4210   54.0840 C.ar    0  <0>0        0.0143
     19  C17        0.1170   25.2800   53.3500 C.ar    0  <0>0        0.0013
     20  C16       -0.6150   25.3630   52.1800 C.ar    0  <0>0        0.0001
     21  C15       -1.0920   26.5840   51.7430 C.ar    0  <0>0        0.0013
     22  C14       -0.8390   27.7270   52.4750 C.ar    0  <0>0        0.0143
@<TRIPOS>BOND
     1    21    20   ar
     2    21    22   ar
     3    20    19   ar
     4    22    17   ar
     5    19    18   ar
     6    17    18   ar
     7    17    15    1
     8     4     2    1
     9    16    15    1
    10    15     1    1
    11     2     1    1
    12     2     3    1
    13    13    11    1
    14    13    14    1
    15     1    11    1
    16     1     5    1
    17    11    12    2
    18     5    10   ar
    19     5     6   ar
    20    10     9   ar
    21     6     7   ar
    22     9     8   ar
    23     7     8   ar
