@<TRIPOS>MOLECULE
ZINC04292207_replica-1.pdb
 24 26 0 0 0
SMALL
GASTEIGER

@<TRIPOS>ATOM
      1  N2         0.6810   30.8570   55.1470 N.am    0  <0>0       -0.2507
      2  C9         0.3430   29.6330   55.5990 C.2     0  <0>0        0.2516
      3  O1         0.2950   29.4190   56.7930 O.2     0  <0>0       -0.2697
      4  H6         0.7200   31.0290   54.1940 H       0  <0>0        0.1580
      5  C8         0.9710   31.8700   56.0440 C.2     0  <0>0        0.2174
      6  N1         2.1080   32.4970   56.2410 N.2     0  <0>0       -0.3802
      7  C7         2.2470   33.4790   57.1570 C.2     0  <0>0        0.1359
      8  C2         3.4050   34.2310   57.4610 C.2     0  <0>0        0.0151
      9  C6         1.0890   33.7860   57.9070 C.2     0  <0>0        0.0584
     10  C1         4.6840   33.9680   56.7090 C.3     0  <0>0        0.0343
     11  C3         3.3770   35.1970   58.4340 C.2     0  <0>0        0.0383
     12  C4         2.2210   35.4710   59.1510 C.3     0  <0>0        0.0643
     13 Cl          4.8210   36.0980   58.7780 Cl      0  <0>0       -0.0868
     14  C5         1.0690   34.7550   58.8780 C.2     0  <0>0       -0.0114
     15  S1        -0.1060   32.6540   57.2370 S.3     0  <0>0       -0.0377
     16  C10        0.0340   28.5500   54.6380 C.ar    0  <0>0        0.0537
     17  C15       -0.8260   28.7920   53.5660 C.ar    0  <0>0        0.0046
     18  C14       -1.1150   27.7850   52.6720 C.ar    0  <0>0        0.0030
     19  C13       -0.5460   26.5190   52.8400 C.ar    0  <0>0        0.0347
     20  C12        0.3150   26.2770   53.9150 C.ar    0  <0>0        0.0030
     21  C11        0.6020   27.2860   54.8070 C.ar    0  <0>0        0.0046
     22  C16       -0.8540   25.4400   51.8840 C.2     0  <0>0        0.1735
     23  O2        -1.5260   25.6720   50.9020 O.2     0  <0>0       -0.2913
     24  C17       -0.3350   24.0460   52.1290 C.3     0  <0>0        0.0773
@<TRIPOS>BOND
     1    23    22    2
     2    22    24    1
     3    22    19    1
     4    18    19   ar
     5    18    17   ar
     6    19    20   ar
     7    17    16   ar
     8    20    21   ar
     9     4     1    1
    10    16    21   ar
    11    16     2    1
    12     1     2   am
    13     1     5    1
    14     2     3    2
    15     5     6    2
    16     5    15    1
    17     6     7    2
    18    10     8    1
    19     7     8    1
    20     7     9    1
    21    15     9    1
    22     8    11    2
    23     9    14    2
    24    11    13    1
    25    11    12    1
    26    14    12    1
