@<TRIPOS>MOLECULE
ZINC36031343_replica-1.pdb
 27 28 0 0 0
SMALL
GASTEIGER

@<TRIPOS>ATOM
      1  N1        -0.5330   29.3930   56.3680 N.4     0  <0>0        0.3926
      2  H29       -0.2660   28.4230   56.4540 H       0  <0>0       -0.0790
      3  C9        -0.5490   29.7710   54.9490 C.3     0  <0>0       -0.0500
      4  C5        -0.5380   28.5280   54.0980 C.ar    0  <0>0       -0.0471
      5  C4         0.2360   27.4430   54.4680 C.ar    0  <0>0       -0.0070
      6  C3         0.2460   26.3020   53.6880 C.ar    0  <0>0       -0.0047
      7  C2        -0.5190   26.2460   52.5370 C.ar    0  <0>0       -0.0222
      8  C1        -0.5080   25.0020   51.6860 C.3     0  <0>0        0.0310
      9  C7        -1.2880   27.3320   52.1640 C.ar    0  <0>0       -0.0089
     10  C6        -1.3010   28.4710   52.9470 C.ar    0  <0>0       -0.0281
     11  C8        -2.1450   29.6530   52.5430 C.3     0  <0>0        0.0306
     12  C10        0.4330   30.2340   57.0880 C.3     0  <0>0       -0.0430
     13  C11        0.7230   31.4920   56.2680 C.3     0  <0>0        0.1335
     14  C12        0.2080   32.7210   57.0210 C.3     0  <0>0        0.2321
     15  O1         0.7540   32.7340   58.3410 O.3     0  <0>0       -0.4729
     16  C13        1.7510   33.6240   58.5870 C.ar    0  <0>0        0.1387
     17  C18        1.7200   34.8810   58.0010 C.ar    0  <0>0        0.0378
     18  C17        2.7310   35.7870   58.2570 C.ar    0  <0>0        0.0145
     19  C16        3.7800   35.4370   59.0890 C.ar    0  <0>0        0.0579
     20  C15        3.8160   34.1820   59.6700 C.ar    0  <0>0        0.0145
     21 Cl          5.0530   36.5750   59.4030 Cl      0  <0>0       -0.0822
     22  C14        2.8030   33.2750   59.4200 C.ar    0  <0>0        0.0378
     23  O2         2.1320   31.6140   56.0640 O.3     0  <0>0       -0.3828
     24  H21        2.5370   30.8430   55.6440 H       0  <0>0        0.2104
     25  C19       -1.8720   29.5850   56.9410 C.3     0  <0>0       -0.0576
     26  C20       -2.7000   30.4790   56.0160 C.3     0  <0>0       -0.0229
     27  C21       -2.5630   28.2270   57.0900 C.3     0  <0>0       -0.0229
@<TRIPOS>BOND
     1     8     7    1
     2     9     7   ar
     3     9    10   ar
     4     7     6   ar
     5    11    10    1
     6    10     4   ar
     7     6     5   ar
     8     4     5   ar
     9     4     3    1
    10     3     1    1
    11    24    23    1
    12    26    25    1
    13    23    13    1
    14    13    14    1
    15    13    12    1
    16     1     2    1
    17     1    25    1
    18     1    12    1
    19    25    27    1
    20    14    15    1
    21    17    18   ar
    22    17    16   ar
    23    18    19   ar
    24    15    16    1
    25    16    22   ar
    26    19    21    1
    27    19    20   ar
    28    22    20   ar
