@<TRIPOS>MOLECULE
ZINC57438536_replica-1.pdb
 24 26 0 0 0
SMALL
GASTEIGER

@<TRIPOS>ATOM
      1  C3         0.5080   31.6790   58.5340 C.ar    0  <0>0        0.1724
      2  C4        -0.1280   31.5090   57.3200 C.ar    0  <0>0        0.0401
      3  C5        -0.9430   30.3900   57.1110 C.ar    0  <0>0        0.0036
      4  C6        -1.1100   29.4490   58.1340 C.ar    0  <0>0        0.0099
      5  C7        -0.4710   29.6270   59.3430 C.ar    0  <0>0        0.0712
      6  C8         0.3420   30.7360   59.5470 C.ar    0  <0>0        0.1740
      7 Br         -0.6980   28.3560   60.7250 Br      0  <0>0       -0.0457
      8  C9        -1.6220   30.2040   55.8210 C.2     0  <0>0        0.0026
      9  C10       -1.0240   29.4960   54.8380 C.2     0  <0>0        0.0602
     10  C18       -1.5720   29.4140   53.4660 C.2     0  <0>0        0.1980
     11  C11        0.2610   28.7150   55.0560 C.3     0  <0>0        0.2352
     12  C17       -1.3310   28.1270   52.7710 C.ar    0  <0>0        0.0727
     13  O4        -2.1740   30.3360   52.9430 O.2     0  <0>0       -0.2867
     14  C12       -0.5020   27.1730   53.3750 C.ar    0  <0>0        0.1420
     15  C16       -1.9130   27.8750   51.5310 C.ar    0  <0>0        0.0062
     16  O3         0.0620   27.3810   54.5870 O.3     0  <0>0       -0.4704
     17  C13       -0.2560   25.9780   52.7080 C.ar    0  <0>0        0.0370
     18  C14       -0.8310   25.7390   51.4760 C.ar    0  <0>0        0.0031
     19  C15       -1.6610   26.6810   50.8880 C.ar    0  <0>0        0.0003
     20  O1         1.3000   32.7650   58.7400 O.3     0  <0>0       -0.4724
     21  C2         0.6480   34.0300   58.8660 C.3     0  <0>0        0.2057
     22  C1         0.5830   34.4250   60.3440 C.3     0  <0>0        0.0512
     23  O2         0.9720   30.9030   60.7380 O.3     0  <0>0       -0.5025
     24  H8         0.3800   31.1350   61.4670 H       0  <0>0        0.2923
@<TRIPOS>BOND
     1    19    18   ar
     2    19    15   ar
     3    18    17   ar
     4    15    12   ar
     5    17    14   ar
     6    12    14   ar
     7    12    10    1
     8    13    10    2
     9    14    16    1
    10    10     9    1
    11    16    11    1
    12     9    11    1
    13     9     8    2
    14     8     3    1
    15     3     2   ar
    16     3     4   ar
    17     2     1   ar
    18     4     5   ar
    19     1    20    1
    20     1     6   ar
    21    20    21    1
    22    21    22    1
    23     5     6   ar
    24     5     7    1
    25     6    23    1
    26    23    24    1
