@<TRIPOS>MOLECULE
ZINC35400227_replica-1.pdb
 31 35 0 0 0
SMALL
GASTEIGER

@<TRIPOS>ATOM
      1  C1        -1.1270   28.6720   61.6480 C.ar    0  <0>0        0.0001
      2  C2         0.0870   29.3230   61.8210 C.ar    0  <0>0        0.0013
      3  C3         0.7560   29.8580   60.7440 C.ar    0  <0>0        0.0146
      4  C4         0.2150   29.7470   59.4660 C.ar    0  <0>0        0.0498
      5  C5        -1.0130   29.0840   59.2950 C.ar    0  <0>0        0.0286
      6  C6        -1.6750   28.5500   60.4030 C.ar    0  <0>0        0.0025
      7  C7        -1.3160   29.1300   57.8580 C.2     0  <0>0        0.0838
      8  C8        -0.2610   29.8110   57.2550 C.3     0  <0>0        0.1906
      9  N1         0.6490   30.1740   58.2290 N.pl3   0  <0>0       -0.2928
     10  C16       -0.3010   29.9980   55.8530 C.2     0  <0>0        0.2512
     11  O1         0.5980   30.5870   55.2770 O.2     0  <0>0       -0.2726
     12  N2        -1.3570   29.5090   55.1690 N.am    0  <0>0       -0.2529
     13  C17       -2.3540   28.8550   55.8170 C.3     0  <0>0        0.2219
     14  N3        -2.3340   28.6740   57.1070 N.2     0  <0>0       -0.2501
     15  C9         1.8930   30.9070   57.9830 C.3     0  <0>0        0.1192
     16  C10        1.7220   32.3440   58.4050 C.ar    0  <0>0        0.0083
     17  C15        2.5250   32.8720   59.4000 C.ar    0  <0>0        0.0575
     18  C14        2.3710   34.1920   59.7840 C.ar    0  <0>0        0.0408
     19 Cl          3.7300   31.8820   60.1610 Cl      0  <0>0       -0.0824
     20  C13        1.4070   34.9800   59.1790 C.ar    0  <0>0        0.1410
     21  C12        0.6010   34.4470   58.1880 C.ar    0  <0>0        0.0294
     22  F1         1.2530   36.2690   59.5560 F       0  <0>0       -0.2041
     23  C11        0.7590   33.1300   57.8020 C.ar    0  <0>0        0.0005
     24  C18       -1.4270   29.6870   53.7160 C.3     0  <0>0        0.1220
     25  C19       -1.1800   28.3660   53.0350 C.ar    0  <0>0       -0.0021
     26  C24       -0.3740   27.4190   53.6360 C.ar    0  <0>0       -0.0003
     27  C23       -0.1500   26.2050   53.0140 C.ar    0  <0>0        0.0294
     28  C22       -0.7260   25.9430   51.7820 C.ar    0  <0>0        0.1401
     29  C21       -1.5280   26.8960   51.1770 C.ar    0  <0>0        0.0294
     30  F2        -0.5030   24.7600   51.1700 F       0  <0>0       -0.2042
     31  C20       -1.7550   28.1060   51.8040 C.ar    0  <0>0       -0.0003
@<TRIPOS>BOND
     1    30    28    1
     2    29    28   ar
     3    29    31   ar
     4    28    27   ar
     5    31    25   ar
     6    27    26   ar
     7    25    26   ar
     8    25    24    1
     9    24    12    1
    10    12    13    1
    11    12    10   am
    12    11    10    2
    13    13    14    1
    14    10     8    1
    15    14     7    2
    16     8     7    1
    17     8     9    1
    18    23    21   ar
    19    23    16   ar
    20     7     5    1
    21    15     9    1
    22    15    16    1
    23    21    20   ar
    24     9     4    1
    25    16    17   ar
    26    20    22    1
    27    20    18   ar
    28     5     4   ar
    29     5     6   ar
    30    17    18   ar
    31    17    19    1
    32     4     3   ar
    33     6     1   ar
    34     3     2   ar
    35     1     2   ar
