@<TRIPOS>MOLECULE
ZINC19673792_replica-1.pdb
 24 25 0 0 0
SMALL
GASTEIGER

@<TRIPOS>ATOM
      1  C9         0.8930   33.1150   56.4660 C.2     0  <0>0        0.1502
      2  N1         2.1760   32.8370   56.4320 N.pl3   0  <0>0       -0.1908
      3  S1        -0.2840   31.8180   56.6580 S.3     0  <0>0       -0.0767
      4  C8         0.1040   30.8210   55.1980 C.3     0  <0>0        0.1121
      5  C7        -1.0040   29.7910   54.9740 C.3     0  <0>0        0.2174
      6  O1        -1.2540   29.6580   53.5730 O.3     0  <0>0       -0.4745
      7  C6        -1.0760   28.4240   53.0300 C.ar    0  <0>0        0.1386
      8  C1        -1.6480   28.1130   51.8060 C.ar    0  <0>0        0.0378
      9  C2        -1.4620   26.8610   51.2550 C.ar    0  <0>0        0.0145
     10  C3        -0.7140   25.9110   51.9290 C.ar    0  <0>0        0.0579
     11  C4        -0.1460   26.2180   53.1530 C.ar    0  <0>0        0.0145
     12 Cl         -0.4870   24.3360   51.2380 Cl      0  <0>0       -0.0822
     13  C5        -0.3250   27.4720   53.7050 C.ar    0  <0>0        0.0378
     14  N2         0.4690   34.4160   56.3500 N.2     0  <0>0       -0.3801
     15  H12       -0.2300   34.8350   57.0900 H       0  <0>0        0.1576
     16  H13        0.8280   35.0400   55.5180 H       0  <0>0        0.1576
     17  C10        3.0960   33.8520   56.4000 C.ar    0  <0>0        0.0735
     18  C15        3.4980   34.4710   57.5850 C.ar    0  <0>0        0.0302
     19  C14        4.4290   35.4900   57.5470 C.ar    0  <0>0        0.0863
     20  C13        4.9570   35.9050   56.3340 C.ar    0  <0>0        0.1507
     21 Cl          4.9350   36.2570   59.0190 Cl      0  <0>0       -0.0799
     22  C12        4.5570   35.2970   55.1550 C.ar    0  <0>0        0.0318
     23  F1         5.8650   36.9050   56.3020 F       0  <0>0       -0.2033
     24  C11        3.6320   34.2750   55.1810 C.ar    0  <0>0        0.0189
@<TRIPOS>BOND
     1    12    10    1
     2     9     8   ar
     3     9    10   ar
     4     8     7   ar
     5    10    11   ar
     6     7     6    1
     7     7    13   ar
     8    11    13   ar
     9     6     5    1
    10     5     4    1
    11    22    24   ar
    12    22    20   ar
    13    24    17   ar
    14     4     3    1
    15    16    14    1
    16    23    20    1
    17    20    19   ar
    18    14     1    2
    19    14    15    1
    20    17     2    1
    21    17    18   ar
    22     2     1    1
    23     1     3    1
    24    19    18   ar
    25    19    21    1
