@<TRIPOS>MOLECULE
ZINC01182529_replica-1.pdb
 25 28 0 0 0
SMALL
GASTEIGER

@<TRIPOS>ATOM
      1  C1         2.1210   33.4830   59.8820 C.2     0  <0>0        0.0053
      2  C2         3.0580   32.9540   60.7860 C.2     0  <0>0        0.0163
      3  C3         4.3150   33.4390   60.8250 C.2     0  <0>0        0.0690
      4  N1         4.6990   34.4500   59.9870 N.pl3   0  <0>0       -0.2408
      5  C4         3.8050   34.9890   59.0940 C.2     0  <0>0        0.1882
      6  C5         2.4850   34.4930   59.0460 C.2     0  <0>0        0.0481
      7  N2         4.4190   35.9370   58.4030 N.2     0  <0>0       -0.3870
      8  C6         5.6910   36.0400   58.8220 C.2     0  <0>0        0.1541
      9  C7         5.8870   35.1100   59.8250 C.3     0  <0>0        0.2094
     10  N3         7.0670   34.8840   60.5330 N.am    0  <0>0       -0.2808
     11  C8         8.0490   34.1400   59.9850 C.2     0  <0>0        0.2472
     12  O1         7.8630   33.5740   58.9250 O.2     0  <0>0       -0.2701
     13  H5         7.1810   35.2600   61.4200 H       0  <0>0        0.1516
     14  C9         9.3500   34.0120   60.6740 C.ar    0  <0>0        0.0534
     15  C14       10.2460   35.0820   60.6860 C.ar    0  <0>0        0.0049
     16  C13       11.4590   34.9560   61.3310 C.ar    0  <0>0        0.0059
     17  C12       11.7880   33.7700   61.9660 C.ar    0  <0>0        0.0301
     18  C11       10.9040   32.7040   61.9560 C.ar    0  <0>0        0.0059
     19  I1        13.6330   33.5870   62.9420 I       0  <0>0       -0.0425
     20  C10        9.6860   32.8200   61.3200 C.ar    0  <0>0        0.0049
     21  C15        6.7050   36.9810   58.3020 C.ar    0  <0>0        0.0583
     22  S1         7.3850   37.1060   56.6560 S.2     0  <0>0       -0.0841
     23  C18        8.4970   38.4710   56.9440 C.ar    0  <0>0        0.0355
     24  C17        8.2830   38.7410   58.2570 C.ar    0  <0>0        0.0076
     25  C16        7.3650   37.9870   58.9560 C.ar    0  <0>0        0.0093
@<TRIPOS>BOND
     1    22    23   ar
     2    22    21   ar
     3    23    24   ar
     4    24    25   ar
     5    21     8    1
     6    21    25   ar
     7     7     8    2
     8     7     5    2
     9     8     9    1
    10    12    11    2
    11     6     5    1
    12     6     1    2
    13     5     4    1
    14     9     4    1
    15     9    10    1
    16     1     2    1
    17    11    10   am
    18    11    14    1
    19     4     3    1
    20    10    13    1
    21    14    15   ar
    22    14    20   ar
    23    15    16   ar
    24     2     3    2
    25    20    18   ar
    26    16    17   ar
    27    18    17   ar
    28    17    19    1
