@<TRIPOS>MOLECULE
ZINC62490886_replica-1.pdb
 22 24 0 0 0
SMALL
GASTEIGER

@<TRIPOS>ATOM
      1  C8        10.3900   35.0750   60.8160 C.2     0  <0>0        0.1574
      2  N1         9.6910   34.7820   59.7340 N.2     0  <0>0       -0.3986
      3  C9         8.9340   35.6790   59.1430 C.2     0  <0>0        0.1307
      4  C10        8.9170   36.9530   59.7330 C.3     0  <0>0        0.2089
      5  S1        10.0230   36.6900   61.1100 S.3     0  <0>0       -0.0646
      6  C5        11.2810   34.1870   61.5920 C.ar    0  <0>0        0.0356
      7  C4        10.8150   32.9530   62.0510 C.ar    0  <0>0        0.0027
      8  C3        11.6530   32.1290   62.7750 C.ar    0  <0>0       -0.0042
      9  C2        12.9510   32.5240   63.0460 C.ar    0  <0>0       -0.0218
     10  C1        13.8600   31.6180   63.8370 C.3     0  <0>0        0.0310
     11  C7        13.4170   33.7470   62.5980 C.ar    0  <0>0       -0.0042
     12  C6        12.5920   34.5780   61.8690 C.ar    0  <0>0        0.0027
     13  C11        8.2160   38.1180   59.3480 C.2     0  <0>0        0.3814
     14  O1         8.7510   38.9400   58.6140 O.co2   0  <0>0       -0.2442
     15  O2         7.0720   38.3060   59.7480 O.co2   0  <0>0       -0.2442
     16  C12        8.1460   35.3640   57.9290 C.ar    0  <0>0        0.0291
     17  C17        8.3930   36.0450   56.7370 C.ar    0  <0>0        0.0319
     18  C16        7.6570   35.7400   55.6070 C.ar    0  <0>0        0.1402
     19  C15        6.6700   34.7710   55.6600 C.ar    0  <0>0        0.0296
     20  F1         7.9000   36.3950   54.4490 F       0  <0>0       -0.2042
     21  C14        6.4180   34.0980   56.8410 C.ar    0  <0>0        0.0024
     22  C13        7.1490   34.3880   57.9750 C.ar    0  <0>0        0.0024
@<TRIPOS>BOND
     1    20    18    1
     2    18    19   ar
     3    18    17   ar
     4    19    21   ar
     5    17    16   ar
     6    21    22   ar
     7    16    22   ar
     8    16     3    1
     9    14    13   ar
    10     3     4    1
    11     3     2    2
    12    13     4    1
    13    13    15   ar
    14     4     5    1
    15     2     1    2
    16     1     5    1
    17     1     6    1
    18     6    12   ar
    19     6     7   ar
    20    12    11   ar
    21     7     8   ar
    22    11     9   ar
    23     8     9   ar
    24     9    10    1
