@<TRIPOS>MOLECULE
ZINC09578622_replica-1.pdb
 24 26 0 0 0
SMALL
GASTEIGER

@<TRIPOS>ATOM
      1  C3        -2.1170   27.3280   58.3120 C.ar    0  <0>0        0.0378
      2  C4        -1.6880   28.1490   59.2920 C.ar    0  <0>0        0.0547
      3  C5        -0.8050   29.2120   58.9830 C.ar    0  <0>0        0.2009
      4  O1        -0.4010   29.9680   59.8520 O.2     0  <0>0       -0.2864
      5  C6        -0.3910   29.3730   57.5860 C.ar    0  <0>0        0.0881
      6  C7         0.4500   30.2830   56.9110 C.ar    0  <0>0        0.0853
      7  N1         0.4660   29.9640   55.6470 N.ar    0  <0>0       -0.1680
      8  N2        -0.3520   28.8470   55.4390 N.ar    0  <0>0       -0.2143
      9  C8        -0.8880   28.4820   56.6340 C.ar    0  <0>0        0.1460
     10  N3        -1.7330   27.4800   57.0210 N.ar    0  <0>0       -0.3416
     11  H1        -2.0700   26.8630   56.3520 H       0  <0>0        0.1671
     12  C16        1.2010   31.4260   57.5430 C.3     0  <0>0        0.0542
     13  C9        -0.5840   28.2150   54.2100 C.ar    0  <0>0        0.0882
     14  C14       -1.4060   28.8140   53.2650 C.ar    0  <0>0        0.0891
     15  C13       -1.6340   28.1880   52.0540 C.ar    0  <0>0        0.0054
     16  C12       -1.0440   26.9670   51.7840 C.ar    0  <0>0        0.0000
     17  C11       -0.2240   26.3690   52.7230 C.ar    0  <0>0        0.0015
     18  C10        0.0080   26.9890   53.9350 C.ar    0  <0>0        0.0192
     19  C15       -2.0490   30.1440   53.5590 C.3     0  <0>0        0.4200
     20  F1        -1.0560   31.1130   53.7390 F       0  <0>0       -0.1658
     21  F2        -2.8700   30.5120   52.4860 F       0  <0>0       -0.1658
     22  F3        -2.8200   30.0430   54.7220 F       0  <0>0       -0.1658
     23  C2        -3.0570   26.2030   58.6630 C.3     0  <0>0        0.0437
     24  C1        -2.3060   24.8720   58.5950 C.3     0  <0>0        0.0066
@<TRIPOS>BOND
     1    16    15   ar
     2    16    17   ar
     3    15    14   ar
     4    21    19    1
     5    17    18   ar
     6    14    19    1
     7    14    13   ar
     8    19    20    1
     9    19    22    1
    10    18    13   ar
    11    13     8    1
    12     8     7   ar
    13     8     9   ar
    14     7     6   ar
    15    11    10    1
    16     9    10   ar
    17     9     5   ar
    18     6    12    1
    19     6     5   ar
    20    10     1   ar
    21     5     3   ar
    22     1    23    1
    23     1     2   ar
    24    24    23    1
    25     3     2   ar
    26     3     4    2
