@<TRIPOS>MOLECULE
ZINC37936841_replica-1.pdb
 20 21 0 0 0
SMALL
GASTEIGER

@<TRIPOS>ATOM
      1  C8        -0.3480   28.9310   56.6420 C.3     0  <0>0        0.1866
      2  C9        -1.8070   28.8070   56.4880 C.1     0  <0>0        0.0970
      3  N2        -2.9330   28.7110   56.3690 N.1     0  <0>0       -0.1938
      4  N1         0.2820   28.9590   55.3210 N.pl3   0  <0>0       -0.3190
      5  H9         0.8550   29.7020   55.0710 H       0  <0>0        0.1480
      6  C6         0.0600   27.9160   54.4180 C.ar    0  <0>0        0.0452
      7  C5         0.5430   26.6440   54.6930 C.ar    0  <0>0        0.0143
      8  C4         0.3220   25.6140   53.8000 C.ar    0  <0>0        0.0009
      9  C3        -0.3800   25.8500   52.6320 C.ar    0  <0>0       -0.0042
     10  C2        -0.8620   27.1160   52.3540 C.ar    0  <0>0       -0.0206
     11  C1        -1.6270   27.3670   51.0810 C.3     0  <0>0        0.0311
     12  C7        -0.6400   28.1500   53.2410 C.ar    0  <0>0        0.0101
     13  C10       -0.0280   30.2080   57.3780 C.ar    0  <0>0        0.0311
     14  C15        0.4340   30.1580   58.6810 C.ar    0  <0>0        0.0571
     15  C14        0.7330   31.3300   59.3530 C.ar    0  <0>0        0.0112
     16 Cl          0.6440   28.6270   59.4710 Cl      0  <0>0       -0.0825
     17  C13        0.5590   32.5500   58.7270 C.ar    0  <0>0        0.0017
     18  C12        0.0930   32.6000   57.4270 C.ar    0  <0>0        0.0112
     19  C11       -0.2000   31.4290   56.7510 C.ar    0  <0>0        0.0571
     20 Cl         -0.7860   31.4920   55.1180 Cl      0  <0>0       -0.0825
@<TRIPOS>BOND
     1    11    10    1
     2    10     9   ar
     3    10    12   ar
     4     9     8   ar
     5    12     6   ar
     6     8     7   ar
     7     6     7   ar
     8     6     4    1
     9     5     4    1
    10    20    19    1
    11     4     1    1
    12     3     2    3
    13     2     1    1
    14     1    13    1
    15    19    13   ar
    16    19    18   ar
    17    13    14   ar
    18    18    17   ar
    19    14    15   ar
    20    14    16    1
    21    17    15   ar
