@<TRIPOS>MOLECULE
ZINC32197562_replica-1.pdb
 23 24 0 0 0
SMALL
GASTEIGER

@<TRIPOS>ATOM
      1  N1        10.6410   35.8400   61.1500 N.pl3   0  <0>0       -0.3304
      2  H15       10.9560   36.6550   61.8180 H       0  <0>0        0.1469
      3  C8         9.8750   36.1250   60.0170 C.ar    0  <0>0        0.0447
      4  C7         9.7540   35.1820   59.0030 C.ar    0  <0>0        0.0140
      5  C6         8.9960   35.4670   57.8850 C.ar    0  <0>0       -0.0030
      6  C5         8.3580   36.6880   57.7720 C.ar    0  <0>0       -0.0227
      7  C10        8.4760   37.6290   58.7800 C.ar    0  <0>0       -0.0030
      8  C9         9.2290   37.3500   59.9030 C.ar    0  <0>0        0.0140
      9  C2         7.5320   36.9970   56.5500 C.3     0  <0>0        0.0189
     10  C1         7.5070   38.5090   56.3210 C.3     0  <0>0        0.0044
     11  C3         8.1440   36.3050   55.3320 C.3     0  <0>0        0.0044
     12  C4         6.1030   36.4900   56.7600 C.3     0  <0>0        0.0044
     13  C11       11.0250   34.4590   61.4460 C.3     0  <0>0        0.1213
     14  C12       12.3100   34.4530   62.2760 C.3     0  <0>0        0.1530
     15  C13       12.5100   33.0890   62.8840 C.ar    0  <0>0        0.0165
     16  C18       13.7710   32.6910   63.2910 C.ar    0  <0>0        0.0560
     17  C17       13.9540   31.4380   63.8480 C.ar    0  <0>0        0.0112
     18 Cl         15.1230   33.7630   63.1030 Cl      0  <0>0       -0.0825
     19  C16       12.8780   30.5840   63.9990 C.ar    0  <0>0        0.0008
     20  C15       11.6170   30.9830   63.5920 C.ar    0  <0>0       -0.0002
     21  C14       11.4330   32.2360   63.0390 C.ar    0  <0>0       -0.0011
     22  O1        12.2100   35.4280   63.3170 O.3     0  <0>0       -0.3783
     23  H22       11.9840   36.4760   63.0690 H       0  <0>0        0.2109
@<TRIPOS>BOND
     1    11     9    1
     2    10     9    1
     3     9    12    1
     4     9     6    1
     5     6     5   ar
     6     6     7   ar
     7     5     4   ar
     8     7     8   ar
     9     4     3   ar
    10     8     3   ar
    11     3     1    1
    12     1    13    1
    13     1     2    1
    14    13    14    1
    15    14    15    1
    16    14    22    1
    17    15    21   ar
    18    15    16   ar
    19    21    20   ar
    20    23    22    1
    21    18    16    1
    22    16    17   ar
    23    20    19   ar
    24    17    19   ar
