@<TRIPOS>MOLECULE
ZINC37057549_replica-1.pdb
 22 23 0 0 0
SMALL
GASTEIGER

@<TRIPOS>ATOM
      1  C9         7.7110   36.2960   57.4290 C.ar    0  <0>0        0.0581
      2  C10        8.5920   37.3400   57.6640 C.ar    0  <0>0        0.0156
      3  C11        8.4720   38.5190   56.9530 C.ar    0  <0>0        0.0013
      4  C12        7.4730   38.6630   56.0090 C.ar    0  <0>0        0.0014
      5  C13        6.5880   37.6280   55.7690 C.ar    0  <0>0        0.0158
      6  C14        6.7060   36.4380   56.4730 C.ar    0  <0>0        0.0613
      7  N1         7.8310   35.1000   58.1470 N.pl3   0  <0>0       -0.3331
      8  H18        7.7770   34.2490   57.6850 H       0  <0>0        0.1468
      9  C6         8.0410   35.1340   59.5970 C.3     0  <0>0        0.0691
     10  C5         9.1780   34.1820   59.9710 C.3     0  <0>0        0.0195
     11  C3        10.4520   34.9880   60.2320 C.3     0  <0>0        0.0016
     12  C4        11.3020   34.2720   61.2830 C.3     0  <0>0        0.0001
     13  C2        10.0780   36.3820   60.7420 C.3     0  <0>0        0.0001
     14  C1        10.7760   36.6400   62.0790 C.3     0  <0>0        0.0000
     15  C7         6.7570   34.6980   60.3070 C.3     0  <0>0        0.0195
     16  C8         5.9320   35.9330   60.6750 C.3     0  <0>0        0.0017
     17  N2         5.8150   35.3860   56.2270 N.pl3   0  <0>0       -0.3018
     18  C18        6.1060   34.3720   55.2030 C.3     0  <0>0        0.1231
     19  C17        4.8840   34.2310   54.2940 C.3     0  <0>0        0.1636
     20  O1         3.7210   34.0100   55.0970 O.3     0  <0>0       -0.3501
     21  C16        3.4090   35.0860   55.9850 C.3     0  <0>0        0.1636
     22  C15        4.5580   35.2660   56.9820 C.3     0  <0>0        0.1231
@<TRIPOS>BOND
     1    19    20    1
     2    19    18    1
     3    20    21    1
     4    18    17    1
     5     5     4   ar
     6     5     6   ar
     7    21    22    1
     8     4     3   ar
     9    17     6    1
    10    17    22    1
    11     6     1   ar
    12     3     2   ar
    13     1     2   ar
    14     1     7    1
    15     8     7    1
    16     7     9    1
    17     9    10    1
    18     9    15    1
    19    10    11    1
    20    11    13    1
    21    11    12    1
    22    15    16    1
    23    13    14    1
