@<TRIPOS>MOLECULE
ZINC07380431_replica-1.pdb
 24 27 0 0 0
SMALL
GASTEIGER

@<TRIPOS>ATOM
      1  C1        -0.0110   33.5920   58.5860 C.3     0  <0>0        0.0004
      2  C2         1.1820   34.4210   58.1040 C.3     0  <0>0        0.0052
      3  C3         2.2620   34.4470   59.1900 C.3     0  <0>0        0.0047
      4  C4         3.3400   35.4680   58.8250 C.3     0  <0>0        0.0231
      5  C5         3.8390   35.1780   57.4130 C.2     0  <0>0       -0.0279
      6  C6         3.1030   34.4210   56.5650 C.2     0  <0>0        0.0013
      7  S1         4.0500   34.3470   55.0660 S.3     0  <0>0       -0.0768
      8  C7         5.4260   35.3270   55.5760 C.2     0  <0>0        0.0967
      9  C8         5.1010   35.6830   56.9040 C.3     0  <0>0        0.1410
     10  C9         6.0480   36.5020   57.6080 C.2     0  <0>0        0.2368
     11  O1         5.8630   36.8640   58.7580 O.2     0  <0>0       -0.2741
     12  N1         7.1570   36.8470   56.9130 N.am    0  <0>0       -0.2540
     13  C10        7.3820   36.4560   55.6350 C.3     0  <0>0        0.2224
     14  N2         6.5400   35.7050   54.9580 N.2     0  <0>0       -0.2451
     15  C19        1.7740   33.7850   56.8380 C.3     0  <0>0        0.0324
     16  C11        8.1640   37.6820   57.5740 C.3     0  <0>0        0.1220
     17  C12        8.9230   36.8540   58.5790 C.ar    0  <0>0       -0.0022
     18  C17        9.2690   37.3990   59.8020 C.ar    0  <0>0       -0.0021
     19  C16        9.9640   36.6420   60.7240 C.ar    0  <0>0        0.0059
     20  C15       10.3170   35.3330   60.4220 C.ar    0  <0>0        0.0252
     21  C14        9.9680   34.7890   59.1910 C.ar    0  <0>0        0.0059
     22  C13        9.2680   35.5490   58.2760 C.ar    0  <0>0       -0.0021
     23  S2        11.2060   34.3640   61.5950 S.3     0  <0>0       -0.1127
     24  C18       11.9780   35.5920   62.6840 C.3     0  <0>0        0.0742
@<TRIPOS>BOND
     1    14     8    2
     2    14    13    1
     3     7     8    1
     4     7     6    1
     5     8     9    1
     6    13    12    1
     7     6    15    1
     8     6     5    2
     9    15     2    1
    10     9     5    1
    11     9    10    1
    12    12    16    1
    13    12    10   am
    14     5     4    1
    15    16    17    1
    16    10    11    2
    17     2     1    1
    18     2     3    1
    19    22    17   ar
    20    22    21   ar
    21    17    18   ar
    22     4     3    1
    23    21    20   ar
    24    18    19   ar
    25    20    19   ar
    26    20    23    1
    27    23    24    1
