@<TRIPOS>MOLECULE
ZINC21218695_replica-1.pdb
 36 40 0 0 0
SMALL
GASTEIGER

@<TRIPOS>ATOM
      1  C11        6.2230   36.6540   58.2660 C.3     0  <0>0        0.1186
      2  C12        7.4180   36.1630   59.0490 C.2     0  <0>0        0.0436
      3  C13        8.4310   35.4280   58.5620 C.2     0  <0>0        0.0262
      4  C14        9.5610   34.9770   59.4730 C.3     0  <0>0        0.0458
      5  C15        9.8100   36.0270   60.5530 C.3     0  <0>0        0.0356
      6  C16        8.5140   36.1890   61.3560 C.3     0  <0>0        0.0736
      7  C17        7.4090   36.5530   60.4090 C.2     0  <0>0        0.1722
      8  O2         6.4720   37.2060   60.8250 O.2     0  <0>0       -0.2916
      9  N1         8.5510   35.0230   57.2710 N.pl3   0  <0>0       -0.3150
     10  C24        7.5290   34.4480   56.5220 C.ar    0  <0>0        0.0614
     11  C25        7.6050   33.1540   56.0380 C.ar    0  <0>0        0.0158
     12  C26        6.5890   32.6700   55.2330 C.ar    0  <0>0        0.0014
     13  C27        5.4990   33.4670   54.9320 C.ar    0  <0>0        0.0013
     14  C28        5.4060   34.7500   55.4420 C.ar    0  <0>0        0.0156
     15  C29        6.4240   35.2390   56.2470 C.ar    0  <0>0        0.0586
     16  N2         6.3440   36.5010   56.8310 N.pl3   0  <0>0       -0.3262
     17  H24        9.5090   35.1440   56.7450 H       0  <0>0        0.1520
     18  H29        6.3750   37.3900   56.1840 H       0  <0>0        0.1474
     19  C8         5.0080   35.8910   58.7280 C.ar    0  <0>0       -0.0001
     20  C7         3.7430   36.3850   58.4650 C.ar    0  <0>0        0.0008
     21  C6         2.6270   35.6870   58.8860 C.ar    0  <0>0        0.0366
     22  C5         2.7770   34.4920   59.5740 C.ar    0  <0>0        0.1384
     23  C10        4.0470   34.0000   59.8370 C.ar    0  <0>0        0.0366
     24  C9         5.1580   34.6980   59.4090 C.ar    0  <0>0        0.0008
     25  O1         1.6810   33.8050   59.9890 O.3     0  <0>0       -0.4792
     26  C3         1.8720   32.8430   61.0290 C.3     0  <0>0        0.1660
     27  C4         1.7750   31.4330   60.4420 C.3     0  <0>0        0.0472
     28  C2         0.7940   33.0260   62.0980 C.3     0  <0>0        0.0435
     29  C1        -0.2430   34.0380   61.6090 C.3     0  <0>0        0.0038
     30  C18       10.9210   35.5700   61.4640 C.ar    0  <0>0       -0.0216
     31  C23       11.3240   36.3720   62.5160 C.ar    0  <0>0       -0.0034
     32  C22       12.3430   35.9530   63.3520 C.ar    0  <0>0        0.0111
     33  C21       12.9590   34.7330   63.1350 C.ar    0  <0>0        0.0577
     34  C20       12.5540   33.9330   62.0820 C.ar    0  <0>0        0.0111
     35 Cl         14.2380   34.2080   64.1840 Cl      0  <0>0       -0.0822
     36  C19       11.5320   34.3490   61.2510 C.ar    0  <0>0       -0.0034
@<TRIPOS>BOND
     1    13    12   ar
     2    13    14   ar
     3    12    11   ar
     4    14    15   ar
     5    11    10   ar
     6    18    16    1
     7    15    10   ar
     8    15    16    1
     9    10     9    1
    10    17     9    1
    11    16     1    1
    12     9     3    1
    13     1    19    1
    14     1     2    1
    15    20    19   ar
    16    20    21   ar
    17     3     2    2
    18     3     4    1
    19    19    24   ar
    20    21    22   ar
    21     2     7    1
    22    24    23   ar
    23     4     5    1
    24    22    23   ar
    25    22    25    1
    26    25    26    1
    27     7     8    2
    28     7     6    1
    29    27    26    1
    30     5     6    1
    31     5    30    1
    32    26    28    1
    33    36    30   ar
    34    36    34   ar
    35    30    31   ar
    36    29    28    1
    37    34    33   ar
    38    31    32   ar
    39    33    32   ar
    40    33    35    1
