@<TRIPOS>MOLECULE
ZINC05163469_replica-1.pdb
 24 25 0 0 0
SMALL
GASTEIGER

@<TRIPOS>ATOM
      1  C9         0.3020   32.3190   56.6550 C.ar    0  <0>0        0.0269
      2  C10        1.5990   32.2960   56.1380 C.ar    0  <0>0        0.0419
      3  C11        2.5990   33.0300   56.7510 C.ar    0  <0>0        0.1755
      4  C12        2.3150   33.7820   57.8870 C.ar    0  <0>0        0.2061
      5  C13        1.0250   33.8020   58.4070 C.ar    0  <0>0        0.1755
      6  C14        0.0200   33.0750   57.7960 C.ar    0  <0>0        0.0419
      7  C8        -0.7680   31.5420   56.0010 C.2     0  <0>0        0.1177
      8  N2        -0.6360   31.1680   54.7650 N.2     0  <0>0       -0.1798
      9  N1        -1.6520   30.4290   54.1440 N.pl3   0  <0>0       -0.2359
     10  H7        -2.5600   30.7700   54.1310 H       0  <0>0        0.1744
     11  C5        -1.3560   29.2060   53.5430 C.ar    0  <0>0        0.0658
     12  C4        -1.8320   28.9220   52.2680 C.ar    0  <0>0        0.0158
     13  C3        -1.5410   27.7080   51.6780 C.ar    0  <0>0       -0.0021
     14  C2        -0.7670   26.7790   52.3490 C.ar    0  <0>0       -0.0112
     15  C1        -0.4470   25.4570   51.6990 C.3     0  <0>0        0.0319
     16  C7        -0.2860   27.0600   53.6160 C.ar    0  <0>0        0.0550
     17  C6        -0.5790   28.2700   54.2150 C.ar    0  <0>0        0.0271
     18 Cl          0.6850   25.8900   54.4540 Cl      0  <0>0       -0.0825
     19  O1         0.7530   34.5370   59.5180 O.3     0  <0>0       -0.4683
     20  C15        0.1910   33.8430   60.6340 C.3     0  <0>0        0.2526
     21  O3         3.8620   33.0120   56.2460 O.3     0  <0>0       -0.4683
     22  C17        4.1370   33.8950   55.1570 C.3     0  <0>0        0.2526
     23  O2         3.3020   34.4990   58.4900 O.3     0  <0>0       -0.4654
     24  C16        3.3850   35.8880   58.1650 C.3     0  <0>0        0.2528
@<TRIPOS>BOND
     1    13    12   ar
     2    13    14   ar
     3    15    14    1
     4    12    11   ar
     5    14    16   ar
     6    11     9    1
     7    11    17   ar
     8    16    17   ar
     9    16    18    1
    10    10     9    1
    11     9     8    1
    12     8     7    2
    13    22    21    1
    14     7     1    1
    15     2     1   ar
    16     2     3   ar
    17    21     3    1
    18     1     6   ar
    19     3     4   ar
    20     6     5   ar
    21     4     5   ar
    22     4    23    1
    23    24    23    1
    24     5    19    1
    25    19    20    1
