@<TRIPOS>MOLECULE
ZINC37126217_replica-1.pdb
 22 23 0 0 0
SMALL
GASTEIGER

@<TRIPOS>ATOM
      1  N1         9.4970   34.5290   58.2230 N.pl3   0  <0>0       -0.3282
      2  H12       10.0990   34.5240   57.4630 H       0  <0>0        0.1471
      3  C2         8.1870   33.8810   58.1230 C.3     0  <0>0        0.0921
      4  C1         8.3460   32.5040   57.4760 C.3     0  <0>0        0.0261
      5  C3         7.2700   34.7290   57.2790 C.ar    0  <0>0       -0.0016
      6  C8         5.9630   34.9350   57.6730 C.ar    0  <0>0        0.0342
      7  C7         5.1210   35.7220   56.8990 C.ar    0  <0>0        0.1385
      8  C6         5.5920   36.2880   55.7240 C.ar    0  <0>0        0.0369
      9  C5         6.8990   36.0730   55.3300 C.ar    0  <0>0        0.0028
     10  C4         7.7370   35.2950   56.1060 C.ar    0  <0>0       -0.0025
     11  O1         3.8360   35.9310   57.2880 O.3     0  <0>0       -0.4714
     12  C9         3.5690   35.8930   58.6920 C.3     0  <0>0        0.2525
     13  C10        9.8780   35.1560   59.4150 C.ar    0  <0>0        0.0793
     14  C15        9.5290   36.4860   59.6460 C.ar    0  <0>0        0.1513
     15  C14        9.9050   37.1000   60.8290 C.ar    0  <0>0        0.0382
     16  C13       10.6330   36.3990   61.7730 C.ar    0  <0>0        0.0032
     17  C12       10.9850   35.0810   61.5410 C.ar    0  <0>0        0.0015
     18  C11       10.6090   34.4590   60.3660 C.ar    0  <0>0        0.0174
     19  O2         8.8180   37.1750   58.7150 O.3     0  <0>0       -0.4779
     20  C16        7.9930   38.2430   59.1890 C.3     0  <0>0        0.1662
     21  C17        7.6190   39.1540   58.0190 C.3     0  <0>0        0.0472
     22  C18        6.7220   37.6680   59.8150 C.3     0  <0>0        0.0472
@<TRIPOS>BOND
     1     9     8   ar
     2     9    10   ar
     3     8     7   ar
     4    10     5   ar
     5     7    11    1
     6     7     6   ar
     7     5     6   ar
     8     5     3    1
     9    11    12    1
    10     2     1    1
    11     4     3    1
    12    21    20    1
    13     3     1    1
    14     1    13    1
    15    19    20    1
    16    19    14    1
    17    20    22    1
    18    13    14   ar
    19    13    18   ar
    20    14    15   ar
    21    18    17   ar
    22    15    16   ar
    23    17    16   ar
