@<TRIPOS>MOLECULE
ZINC38703427_replica-1.pdb
 26 29 0 0 0
SMALL
GASTEIGER

@<TRIPOS>ATOM
      1  C1        11.5240   34.2090   62.3210 C.3     0  <0>0        0.0311
      2  C2        10.5730   34.2330   61.1520 C.ar    0  <0>0       -0.0191
      3  C3         9.8440   33.0960   60.8380 C.ar    0  <0>0       -0.0082
      4  C4         8.9760   33.1040   59.7810 C.ar    0  <0>0       -0.0161
      5  C5         8.8250   34.2630   59.0200 C.ar    0  <0>0        0.0693
      6  C6         9.5620   35.4190   59.3250 C.ar    0  <0>0        0.1479
      7  C7        10.4340   35.3870   60.4120 C.ar    0  <0>0        0.0333
      8  O1         9.4530   36.5560   58.6030 O.2     0  <0>0       -0.4490
      9  C8         8.4530   36.6850   57.7080 C.ar    0  <0>0        0.1992
     10  C9         7.6720   35.6340   57.3210 C.ar    0  <0>0        0.0777
     11  C10        7.8800   34.2920   57.8750 C.ar    0  <0>0        0.1992
     12  O2         7.3310   33.2960   57.4380 O.2     0  <0>0       -0.2866
     13  C11        6.6860   36.1430   56.3220 C.3     0  <0>0        0.1235
     14  N1         6.9670   37.5810   56.1760 N.am    0  <0>0       -0.2924
     15  C12        7.9990   37.8880   56.9890 C.2     0  <0>0        0.2809
     16  O3         8.4830   38.9960   57.1110 O.2     0  <0>0       -0.2668
     17  C20        8.1850   31.8670   59.4430 C.3     0  <0>0        0.0312
     18  H7         6.4940   38.1990   55.5980 H       0  <0>0        0.1504
     19  C13        5.2810   35.9350   56.8240 C.ar    0  <0>0       -0.0001
     20  C18        4.2600   35.6710   55.9300 C.ar    0  <0>0       -0.0019
     21  C17        2.9720   35.4730   56.3870 C.ar    0  <0>0        0.0059
     22  C16        2.7010   35.5510   57.7490 C.ar    0  <0>0        0.0252
     23  C15        3.7290   35.8220   58.6440 C.ar    0  <0>0        0.0059
     24  C14        5.0150   36.0130   58.1800 C.ar    0  <0>0       -0.0019
     25  S1         1.0580   35.3060   58.3370 S.3     0  <0>0       -0.1127
     26  C19        1.2800   34.4070   59.8970 C.3     0  <0>0        0.0742
@<TRIPOS>BOND
     1    18    14    1
     2    20    21   ar
     3    20    19   ar
     4    14    13    1
     5    14    15   am
     6    13    19    1
     7    13    10    1
     8    21    22   ar
     9    19    24   ar
    10    15    16    2
    11    15     9    1
    12    10     9   ar
    13    10    11   ar
    14    12    11    2
    15     9     8   ar
    16    22    25    1
    17    22    23   ar
    18    11     5   ar
    19    24    23   ar
    20    25    26    1
    21     8     6   ar
    22     5     6   ar
    23     5     4   ar
    24     6     7   ar
    25    17     4    1
    26     4     3   ar
    27     7     2   ar
    28     3     2   ar
    29     2     1    1
