@<TRIPOS>MOLECULE
ZINC49906293_replica-1.pdb
 19 20 0 0 0
SMALL
GASTEIGER

@<TRIPOS>ATOM
      1  N1        -0.5390   28.7340   54.7360 N.pl3   0  <0>0       -0.3316
      2  H4         0.3240   29.1690   54.8270 H       0  <0>0        0.1468
      3  C3        -0.9220   28.1940   53.5060 C.ar    0  <0>0        0.0562
      4  C2        -1.7070   28.9370   52.6340 C.ar    0  <0>0        0.0152
      5  C1        -2.0850   28.4010   51.4180 C.ar    0  <0>0        0.0022
      6  C6        -1.6840   27.1260   51.0680 C.ar    0  <0>0        0.0123
      7  C5        -0.9020   26.3810   51.9330 C.ar    0  <0>0        0.0694
      8  C4        -0.5190   26.9120   53.1520 C.ar    0  <0>0        0.0812
      9 Cl         -0.4000   24.7790   51.4890 Cl      0  <0>0       -0.0813
     10 Cl          0.4610   25.9770   54.2380 Cl      0  <0>0       -0.0801
     11  C7        -1.4390   28.6450   55.8880 C.3     0  <0>0        0.0953
     12  C8        -2.0530   30.0200   56.1630 C.3     0  <0>0        0.0908
     13  C9        -0.9840   31.0780   56.0530 C.2     0  <0>0        0.1807
     14  O1        -0.6880   31.5310   54.9660 O.2     0  <0>0       -0.2907
     15  C10       -0.3270   31.5410   57.2140 C.ar    0  <0>0        0.0642
     16  S1         0.3450   30.6040   58.5740 S.2     0  <0>0       -0.0836
     17  C13        0.9360   31.8730   59.5050 C.ar    0  <0>0        0.0355
     18  C12        0.6180   32.9840   58.7930 C.ar    0  <0>0        0.0076
     19  C11       -0.0380   32.8470   57.5970 C.ar    0  <0>0        0.0099
@<TRIPOS>BOND
     1     6     5   ar
     2     6     7   ar
     3     5     4   ar
     4     9     7    1
     5     7     8   ar
     6     4     3   ar
     7     8     3   ar
     8     8    10    1
     9     3     1    1
    10     1     2    1
    11     1    11    1
    12    14    13    2
    13    11    12    1
    14    13    12    1
    15    13    15    1
    16    15    19   ar
    17    15    16   ar
    18    19    18   ar
    19    16    17   ar
    20    18    17   ar
