@<TRIPOS>MOLECULE
ZINC10036069_replica-1.pdb
 22 23 0 0 0
SMALL
GASTEIGER

@<TRIPOS>ATOM
      1  C10       -0.4850   29.6310   56.4440 C.3     0  <0>0        0.0955
      2  C7        -0.5310   28.8070   55.1840 C.ar    0  <0>0       -0.0045
      3  C6        -1.3030   29.2200   54.1150 C.ar    0  <0>0       -0.0030
      4  C5        -1.3440   28.4630   52.9590 C.ar    0  <0>0       -0.0045
      5  C4        -0.6130   27.2920   52.8720 C.ar    0  <0>0       -0.0225
      6  C9         0.1590   26.8790   53.9420 C.ar    0  <0>0       -0.0045
      7  C8         0.2050   27.6390   55.0960 C.ar    0  <0>0       -0.0030
      8  C2        -0.6580   26.4680   51.6110 C.3     0  <0>0        0.0224
      9  C1        -0.6940   24.9820   51.9760 C.3     0  <0>0        0.0047
     10  C3        -1.9120   26.8270   50.8120 C.3     0  <0>0        0.0047
     11  C11       -0.8420   28.7510   57.6430 C.3     0  <0>0        0.0223
     12  C12       -2.3200   28.3640   57.5710 C.3     0  <0>0        0.0020
     13  C13       -0.5800   29.5220   58.9390 C.3     0  <0>0        0.0020
     14  N1         0.8630   30.1770   56.6230 N.am    0  <0>0       -0.2868
     15  C14        1.1260   31.4510   56.2720 C.2     0  <0>0        0.3009
     16  O1         0.2450   32.1480   55.8060 O.2     0  <0>0       -0.2528
     17  N2         2.3660   31.9530   56.4360 N.am    0  <0>0       -0.2906
     18  H21        3.0700   31.3970   56.8070 H       0  <0>0        0.1509
     19  H20        1.5660   29.6200   56.9940 H       0  <0>0        0.1512
     20  C15        2.6530   33.3380   56.0540 C.3     0  <0>0        0.0732
     21  C17        3.4900   34.1790   57.0190 C.3     0  <0>0        0.0213
     22  C16        4.0990   33.6890   55.7040 C.3     0  <0>0        0.0213
@<TRIPOS>BOND
     1    10     8    1
     2     8     9    1
     3     8     5    1
     4     5     4   ar
     5     5     6   ar
     6     4     3   ar
     7     6     7   ar
     8     3     2   ar
     9     7     2   ar
    10     2     1    1
    11    22    20    1
    12    22    21    1
    13    16    15    2
    14    20    17    1
    15    20    21    1
    16    15    17   am
    17    15    14   am
    18    17    18    1
    19     1    14    1
    20     1    11    1
    21    14    19    1
    22    12    11    1
    23    11    13    1
