@<TRIPOS>MOLECULE
ZINC65319298_replica-1.pdb
 31 34 0 0 0
SMALL
GASTEIGER

@<TRIPOS>ATOM
      1  C11        7.9990   33.8300   59.3220 C.2     0  <0>0        0.1450
      2  C12        6.8550   34.5190   59.5800 C.3     0  <0>0        0.1909
      3  N2         6.0360   34.4010   58.4620 N.pl3   0  <0>0       -0.2392
      4  C13        4.7650   34.8550   58.0810 C.ar    0  <0>0        0.0616
      5  C14        3.8950   35.6470   58.8480 C.ar    0  <0>0        0.0151
      6  C15        2.6680   36.0250   58.3560 C.ar    0  <0>0       -0.0029
      7  C16        2.2520   35.6390   57.0930 C.ar    0  <0>0       -0.0213
      8  C17        3.0890   34.8580   56.3160 C.ar    0  <0>0        0.0036
      9  C18        4.3170   34.4810   56.8100 C.ar    0  <0>0        0.0465
     10  S1         5.6590   33.5120   56.1690 S.3     0  <0>0       -0.0385
     11  C19        6.7420   33.6340   57.5740 C.2     0  <0>0        0.2193
     12  N3         7.8950   33.3020   58.0720 N.2     0  <0>0       -0.3815
     13  C20        0.9030   36.0630   56.5710 C.3     0  <0>0        0.0310
     14  C8         9.1560   33.6840   60.2350 C.ar    0  <0>0        0.0286
     15  C7        10.1340   34.6760   60.2930 C.ar    0  <0>0        0.0035
     16  C6        11.2080   34.5330   61.1470 C.ar    0  <0>0        0.0131
     17  C5        11.3170   33.4070   61.9440 C.ar    0  <0>0        0.0314
     18  C10       10.3530   32.4160   61.8870 C.ar    0  <0>0        0.0131
     19  C9         9.2700   32.5500   61.0420 C.ar    0  <0>0        0.0035
     20  N1        12.4090   33.2680   62.8070 N.pl3   0  <0>0       -0.3758
     21  H29       12.1050   33.4090   63.7580 H       0  <0>0        0.1277
     22  C2        12.9720   31.9180   62.6680 C.3     0  <0>0        0.0726
     23  C1        12.7460   31.1350   63.9640 C.3     0  <0>0        0.0215
     24  C3        13.4330   34.2630   62.4660 C.3     0  <0>0        0.0726
     25  C4        14.8160   33.7110   62.8200 C.3     0  <0>0        0.0215
     26  N4         6.5580   35.2170   60.7520 N.3     0  <0>0       -0.2747
     27  H21        5.9510   34.8320   61.4040 H       0  <0>0        0.1252
     28  C21        7.1600   36.5290   60.9960 C.3     0  <0>0        0.1026
     29  C22        6.4220   37.5890   60.1760 C.3     0  <0>0        0.1593
     30  O1         7.2660   38.0450   59.1170 O.3     0  <0>0       -0.3496
     31  C23        8.6560   38.0640   59.4480 C.3     0  <0>0        0.1742
@<TRIPOS>BOND
     1    10     9    1
     2    10    11    1
     3     8     9   ar
     4     8     7   ar
     5    13     7    1
     6     9     4   ar
     7     7     6   ar
     8    11    12    2
     9    11     3    1
    10    12     1    2
    11     4     3    1
    12     4     5   ar
    13     6     5   ar
    14     3     2    1
    15    30    31    1
    16    30    29    1
    17     1     2    1
    18     1    14    1
    19     2    26    1
    20    29    28    1
    21    14    15   ar
    22    14    19   ar
    23    15    16   ar
    24    26    28    1
    25    26    27    1
    26    19    18   ar
    27    16    17   ar
    28    18    17   ar
    29    17    20    1
    30    24    20    1
    31    24    25    1
    32    22    20    1
    33    22    23    1
    34    20    21    1
