@<TRIPOS>MOLECULE
ZINC57749700_replica-1.pdb
 20 21 0 0 0
SMALL
GASTEIGER

@<TRIPOS>ATOM
      1  C8        -1.6960   29.1220   55.3110 C.3     0  <0>0        0.1300
      2  C7        -0.3530   28.7380   54.6880 C.3     0  <0>0        0.0421
      3  C3        -0.5830   27.7700   53.5560 C.ar    0  <0>0       -0.0191
      4  C2        -0.0780   26.4860   53.6320 C.ar    0  <0>0       -0.0041
      5  C1        -0.2880   25.5970   52.5930 C.ar    0  <0>0        0.0020
      6  C6        -1.0020   25.9920   51.4790 C.ar    0  <0>0        0.0296
      7  C5        -1.5080   27.2790   51.4020 C.ar    0  <0>0        0.1398
      8  C4        -1.2980   28.1680   52.4410 C.ar    0  <0>0        0.0254
      9  F1        -2.2080   27.6650   50.3120 F       0  <0>0       -0.2042
     10  C9        -1.6740   28.8100   56.7850 C.ar    0  <0>0       -0.0106
     11  C14       -0.8640   29.5390   57.6340 C.ar    0  <0>0        0.0085
     12  C13       -0.8490   29.2560   58.9880 C.ar    0  <0>0        0.0679
     13  C12       -1.6360   28.2350   59.4900 C.ar    0  <0>0        0.0682
     14 Cl          0.1640   30.1770   60.0570 Cl      0  <0>0       -0.0814
     15  C11       -2.4430   27.5010   58.6380 C.ar    0  <0>0        0.0119
     16 Cl         -1.6140   27.8740   61.1880 Cl      0  <0>0       -0.0814
     17  C10       -2.4610   27.7890   57.2860 C.ar    0  <0>0       -0.0028
     18  C15       -1.9400   30.5960   55.1140 C.2     0  <0>0        0.3687
     19  O1        -3.0160   31.0820   55.4170 O.co2   0  <0>0       -0.2453
     20  O2        -1.0610   31.3020   54.6480 O.co2   0  <0>0       -0.2453
@<TRIPOS>BOND
     1     9     7    1
     2     7     6   ar
     3     7     8   ar
     4     6     5   ar
     5     8     3   ar
     6     5     4   ar
     7     3     4   ar
     8     3     2    1
     9    20    18   ar
    10     2     1    1
    11    18     1    1
    12    18    19   ar
    13     1    10    1
    14    10    17   ar
    15    10    11   ar
    16    17    15   ar
    17    11    12   ar
    18    15    13   ar
    19    12    13   ar
    20    12    14    1
    21    13    16    1
