@<TRIPOS>MOLECULE
ZINC67014064_replica-1.pdb
 26 28 0 0 0
SMALL
GASTEIGER

@<TRIPOS>ATOM
      1  N1        -0.4570   32.5880   57.0130 N.am    0  <0>0       -0.2847
      2  C8        -0.0560   31.5180   56.2990 C.2     0  <0>0        0.3044
      3  O1         1.1290   31.3180   56.1180 O.2     0  <0>0       -0.2526
      4  N2        -0.9690   30.6700   55.7840 N.am    0  <0>0       -0.2588
      5  C9        -2.4090   30.9550   55.8870 C.3     0  <0>0        0.1270
      6  C10       -3.0290   30.8140   54.4920 C.3     0  <0>0        0.1640
      7  O2        -2.6710   29.5430   53.9440 O.3     0  <0>0       -0.3483
      8  C11       -1.2660   29.3660   53.7480 C.3     0  <0>0        0.1574
      9  C12       -0.5550   29.4360   55.0990 C.3     0  <0>0        0.1290
     10  H8        -1.4020   32.7890   57.0960 H       0  <0>0        0.1513
     11  C7         0.5350   33.4490   57.6630 C.3     0  <0>0        0.1177
     12  C6         0.4920   33.2270   59.1530 C.ar    0  <0>0       -0.0024
     13  C1         0.2450   34.2890   60.0030 C.ar    0  <0>0       -0.0003
     14  C2         0.2060   34.0870   61.3690 C.ar    0  <0>0        0.0294
     15  C3         0.4140   32.8200   61.8870 C.ar    0  <0>0        0.1401
     16  C4         0.6620   31.7560   61.0340 C.ar    0  <0>0        0.0294
     17  F3         0.3760   32.6210   63.2220 F       0  <0>0       -0.2042
     18  C5         0.7010   31.9620   59.6680 C.ar    0  <0>0       -0.0003
     19  C13       -1.0110   28.0240   53.1110 C.ar    0  <0>0        0.0086
     20  C18       -0.3240   27.0490   53.8060 C.ar    0  <0>0        0.0301
     21  C17       -0.0950   25.8130   53.2240 C.ar    0  <0>0        0.1671
     22  C16       -0.5460   25.5620   51.9370 C.ar    0  <0>0        0.1674
     23  F1         0.5740   24.8580   53.9050 F       0  <0>0       -0.2018
     24  C15       -1.2300   26.5430   51.2410 C.ar    0  <0>0        0.0317
     25  F2        -0.3190   24.3590   51.3640 F       0  <0>0       -0.2018
     26  C14       -1.4620   27.7720   51.8270 C.ar    0  <0>0        0.0006
@<TRIPOS>BOND
     1    24    26   ar
     2    24    22   ar
     3    25    22    1
     4    26    19   ar
     5    22    21   ar
     6    19     8    1
     7    19    20   ar
     8    21    20   ar
     9    21    23    1
    10     8     7    1
    11     8     9    1
    12     7     6    1
    13     6     5    1
    14     9     4    1
    15     4     5    1
    16     4     2   am
    17     3     2    2
    18     2     1   am
    19     1    10    1
    20     1    11    1
    21    11    12    1
    22    12    18   ar
    23    12    13   ar
    24    18    16   ar
    25    13    14   ar
    26    16    15   ar
    27    14    15   ar
    28    15    17    1
