@<TRIPOS>MOLECULE
ZINC40313779_replica-1.pdb
 32 35 0 0 0
SMALL
GASTEIGER

@<TRIPOS>ATOM
      1  N1         4.1660   34.0040   57.4750 N.4     0  <0>0        0.3962
      2  H28        4.3810   33.8600   58.4500 H       0  <0>0       -0.0785
      3  C10        4.6720   32.8720   56.6880 C.3     0  <0>0       -0.0425
      4  C9         5.0670   31.7320   57.6300 C.3     0  <0>0        0.1335
      5  C8         5.8670   32.2970   58.8060 C.3     0  <0>0        0.2321
      6  O1         7.2610   32.0840   58.5790 O.3     0  <0>0       -0.4733
      7  C7         8.1040   33.0890   58.9330 C.ar    0  <0>0        0.1346
      8  C2         8.6150   33.9420   57.9660 C.ar    0  <0>0        0.0121
      9  C1         8.2360   33.7550   56.5190 C.3     0  <0>0        0.0342
     10  C3         9.4670   34.9670   58.3300 C.ar    0  <0>0       -0.0013
     11  C4         9.8150   35.1390   59.6580 C.ar    0  <0>0       -0.0001
     12  C5         9.3110   34.2870   60.6230 C.ar    0  <0>0        0.0031
     13  C6         8.4590   33.2610   60.2630 C.ar    0  <0>0        0.0366
     14  O3         3.8880   31.0900   58.1200 O.3     0  <0>0       -0.3828
     15  H27        3.7390   31.2090   59.0670 H       0  <0>0        0.2104
     16  C11        4.8000   35.2460   57.0120 C.3     0  <0>0       -0.0492
     17  C12        5.4840   35.9230   58.1710 C.ar    0  <0>0       -0.0432
     18  C17        6.4940   36.8710   57.9390 C.ar    0  <0>0       -0.0060
     19  C16        7.1220   37.5020   59.0420 C.ar    0  <0>0       -0.0004
     20  C18        6.8910   37.2090   56.6340 C.ar    0  <0>0       -0.0004
     21  C15        6.7290   37.1590   60.3470 C.ar    0  <0>0       -0.0000
     22  C21        8.1290   38.4550   58.8090 C.ar    0  <0>0       -0.0000
     23  C14        5.7500   36.2320   60.5330 C.ar    0  <0>0       -0.0004
     24  C13        5.1290   35.6160   59.4500 C.ar    0  <0>0       -0.0063
     25  C20        8.4960   38.7480   57.5320 C.ar    0  <0>0       -0.0000
     26  C19        7.8750   38.1320   56.4480 C.ar    0  <0>0       -0.0000
     27  C22        2.7100   34.1050   57.3060 C.3     0  <0>0       -0.0104
     28  C23        2.0400   34.0240   58.6530 C.ar    0  <0>0        0.1022
     29  O2         2.3650   33.1760   59.6420 O.2     0  <0>0       -0.4568
     30  C26        1.5610   33.3880   60.6970 C.ar    0  <0>0        0.1790
     31  C25        0.7030   34.3750   60.3850 C.ar    0  <0>0        0.0434
     32  C24        1.0120   34.7860   59.0680 C.ar    0  <0>0        0.0340
@<TRIPOS>BOND
     1    26    20   ar
     2    26    25   ar
     3     9     8    1
     4    20    18   ar
     5     3     1    1
     6     3     4    1
     7    16     1    1
     8    16    17    1
     9    27     1    1
    10    27    28    1
    11     1     2    1
    12    25    22   ar
    13     4    14    1
    14     4     5    1
    15    18    17   ar
    16    18    19   ar
    17     8    10   ar
    18     8     7   ar
    19    14    15    1
    20    17    24   ar
    21    10    11   ar
    22     6     5    1
    23     6     7    1
    24    28    32   ar
    25    28    29   ar
    26    22    19   ar
    27     7    13   ar
    28    19    21   ar
    29    32    31   ar
    30    24    23   ar
    31    29    30   ar
    32    11    12   ar
    33    13    12   ar
    34    21    23   ar
    35    31    30   ar
