@<TRIPOS>MOLECULE
ZINC67333433_replica-1.pdb
 26 29 0 0 0
SMALL
GASTEIGER

@<TRIPOS>ATOM
      1  C8         0.7090   30.1520   57.3050 C.2     0  <0>0        0.2513
      2  O1         0.0590   29.3990   58.0050 O.2     0  <0>0       -0.2696
      3  N3         0.6050   30.0820   55.9630 N.am    0  <0>0       -0.3018
      4  H6         1.1240   30.6830   55.4050 H       0  <0>0        0.1497
      5  C7         1.6060   31.1390   57.9230 C.2     0  <0>0        0.0777
      6  C2         1.4570   32.4890   57.9970 C.2     0  <0>0       -0.0203
      7  C1         0.2440   33.1490   57.3950 C.3     0  <0>0        0.0279
      8  C3         2.4330   33.2650   58.6420 C.3     0  <0>0        0.1274
      9  C6         3.5340   32.5430   59.1740 C.2     0  <0>0        0.1603
     10  C4         2.4800   34.6670   58.8400 C.2     0  <0>0        0.1098
     11  N2         4.5160   33.1530   59.8020 N.2     0  <0>0       -0.3408
     12  S1         3.1580   30.8600   58.7580 S.3     0  <0>0       -0.0542
     13  C5         4.4960   34.4640   59.9500 C.1     0  <0>0        0.1139
     14  N1         3.5000   35.1950   59.4790 N.2     0  <0>0       -0.3515
     15  C18        5.6320   35.1420   60.6730 C.3     0  <0>0        0.1428
     16  C19        1.3700   35.5450   58.3210 C.3     0  <0>0        0.0633
     17  C9        -0.2890   29.0980   55.3480 C.3     0  <0>0        0.0763
     18  C11       -0.7150   29.3400   53.8990 C.3     0  <0>0        0.0420
     19  C10       -1.7190   29.5430   55.0360 C.3     0  <0>0        0.0259
     20  C12       -0.8980   28.1330   53.0170 C.ar    0  <0>0       -0.0186
     21  C17       -0.3470   26.9200   53.3830 C.ar    0  <0>0        0.0254
     22  C16       -0.5200   25.8080   52.5750 C.ar    0  <0>0        0.1398
     23  C15       -1.2340   25.9170   51.3940 C.ar    0  <0>0        0.0296
     24  F1         0.0130   24.6200   52.9360 F       0  <0>0       -0.2042
     25  C14       -1.7790   27.1330   51.0250 C.ar    0  <0>0        0.0020
     26  C13       -1.6110   28.2400   51.8360 C.ar    0  <0>0       -0.0041
@<TRIPOS>BOND
     1    25    23   ar
     2    25    26   ar
     3    23    22   ar
     4    26    20   ar
     5    22    24    1
     6    22    21   ar
     7    20    21   ar
     8    20    18    1
     9    18    19    1
    10    18    17    1
    11    19    17    1
    12    17     3    1
    13     4     3    1
    14     3     1   am
    15     1     5    1
    16     1     2    2
    17     7     6    1
    18     5     6    2
    19     5    12    1
    20     6     8    1
    21    16    10    1
    22     8    10    1
    23     8     9    1
    24    12     9    1
    25    10    14    2
    26     9    11    2
    27    14    13    2
    28    11    13    2
    29    13    15    1
