@<TRIPOS>MOLECULE
ZINC40228057_replica-1.pdb
 23 24 0 0 0
SMALL
GASTEIGER

@<TRIPOS>ATOM
      1  O1        10.4960   34.0290   61.7310 O.3     0  <0>0       -0.4754
      2  C5        11.6490   33.4920   62.2090 C.ar    0  <0>0        0.1386
      3  C4        11.6580   32.1950   62.6940 C.ar    0  <0>0        0.0386
      4  C3        12.8450   31.6460   63.1840 C.ar    0  <0>0        0.0226
      5  C2        14.0140   32.4100   63.1810 C.ar    0  <0>0        0.0019
      6  C1        13.9930   33.7020   62.6960 C.ar    0  <0>0        0.0032
      7  C6        12.8170   34.2430   62.2110 C.ar    0  <0>0        0.0369
      8  C17       12.8630   30.2640   63.7020 C.2     0  <0>0        0.0781
      9  S1        12.7570   29.9790   65.3860 S.2     0  <0>0       -0.0352
     10  N1        12.9640   29.2260   62.8480 N.am    0  <0>0       -0.3517
     11  H24       13.0240   29.3870   61.8920 H       0  <0>0        0.1428
     12  H25       12.9760   28.3170   63.1870 H       0  <0>0        0.1428
     13  C7        10.5060   34.4830   60.3750 C.3     0  <0>0        0.2080
     14  C8        10.2370   35.9890   60.3400 C.3     0  <0>0        0.0793
     15  C9         9.1900   36.3450   61.3970 C.3     0  <0>0        0.1459
     16  O2         7.9870   36.7690   60.7520 O.3     0  <0>0       -0.3561
     17  C10        8.1200   36.9570   59.3410 C.3     0  <0>0        0.1152
     18  C16        7.9060   38.4450   58.9960 C.3     0  <0>0        0.0296
     19  C15        8.4600   38.7970   57.6960 C.3     0  <0>0        0.0025
     20  C14        7.7930   38.0220   56.5420 C.3     0  <0>0        0.0001
     21  C13        8.3950   36.6440   56.4790 C.3     0  <0>0        0.0001
     22  C12        7.5770   35.6060   57.2690 C.3     0  <0>0        0.0025
     23  C11        7.0760   36.1450   58.6240 C.3     0  <0>0        0.0296
@<TRIPOS>BOND
     1    21    20    1
     2    21    22    1
     3    20    19    1
     4    22    23    1
     5    19    18    1
     6    23    17    1
     7    18    17    1
     8    17    16    1
     9    14    13    1
    10    14    15    1
    11    13     1    1
    12    16    15    1
    13     1     2    1
    14    11    10    1
    15     2     7   ar
    16     2     3   ar
    17     7     6   ar
    18     3     4   ar
    19     6     5   ar
    20    10    12    1
    21    10     8    1
    22     5     4   ar
    23     4     8    1
    24     8     9    2
