@<TRIPOS>MOLECULE
ZINC51020142_replica-1.pdb
 21 23 0 0 0
SMALL
GASTEIGER

@<TRIPOS>ATOM
      1  C1         8.5810   34.5230   56.7720 C.ar    0  <0>0        0.0013
      2  C2         8.0600   33.2490   56.8990 C.ar    0  <0>0        0.0006
      3  C3         8.1180   32.5940   58.1190 C.ar    0  <0>0        0.0077
      4  C4         8.6970   33.2210   59.2060 C.ar    0  <0>0        0.0431
      5  C5         9.2240   34.5090   59.0820 C.ar    0  <0>0        0.0576
      6  C6         9.1610   35.1540   57.8570 C.ar    0  <0>0        0.0153
      7  N1         9.8140   35.1400   60.1840 N.pl3   0  <0>0       -0.2861
      8  C7        10.5850   34.4350   61.1140 C.ar    0  <0>0        0.0576
      9  C8        11.7140   35.0170   61.6700 C.ar    0  <0>0        0.0153
     10  C9        12.4730   34.3140   62.5890 C.ar    0  <0>0        0.0013
     11  C10       12.1140   33.0320   62.9590 C.ar    0  <0>0        0.0006
     12  C11       10.9870   32.4410   62.4100 C.ar    0  <0>0        0.0077
     13  C12       10.2270   33.1390   61.4910 C.ar    0  <0>0        0.0431
     14  S1         8.7860   32.4130   60.7730 S.3     0  <0>0       -0.0844
     15  C13        9.6180   36.5800   60.3670 C.3     0  <0>0        0.0956
     16  C14        8.2000   36.8410   60.8790 C.3     0  <0>0        0.0219
     17  C15        7.4860   37.8080   59.9330 C.3     0  <0>0        0.0043
     18  C16        8.5190   38.5250   59.0610 C.3     0  <0>0        0.0318
     19  C17        7.9720   38.6750   57.6400 C.3     0  <0>0        0.1372
     20  O1         9.0400   39.0030   56.7510 O.3     0  <0>0       -0.3820
     21  H19        8.8870   39.8030   56.2290 H       0  <0>0        0.2104
@<TRIPOS>BOND
     1    21    20    1
     2    20    19    1
     3     1     2   ar
     4     1     6   ar
     5     2     3   ar
     6    19    18    1
     7     6     5   ar
     8     3     4   ar
     9    18    17    1
    10     5     4   ar
    11     5     7    1
    12     4    14    1
    13    17    16    1
    14     7    15    1
    15     7     8    1
    16    15    16    1
    17    14    13    1
    18     8    13   ar
    19     8     9   ar
    20    13    12   ar
    21     9    10   ar
    22    12    11   ar
    23    10    11   ar
