@<TRIPOS>MOLECULE
ZINC37308472_replica-1.pdb
 21 22 0 0 0
SMALL
GASTEIGER

@<TRIPOS>ATOM
      1  C5         8.7870   36.6910   58.4420 C.ar    0  <0>0        0.0757
      2  C6         9.3300   35.4030   58.3710 C.ar    0  <0>0        0.0077
      3  C7        10.0570   34.9090   59.4230 C.ar    0  <0>0        0.0145
      4  C8        10.2540   35.6850   60.5610 C.ar    0  <0>0        0.0446
      5  C9         9.7150   36.9670   60.6360 C.ar    0  <0>0        0.0145
      6  C10        8.9920   37.4710   59.5850 C.ar    0  <0>0        0.0077
      7  N1        10.9900   35.1800   61.6270 N.pl3   0  <0>0       -0.3326
      8  H13       11.4780   35.7840   62.2090 H       0  <0>0        0.1468
      9  C11       11.0310   33.7360   61.8700 C.3     0  <0>0        0.0873
     10  C12       12.2140   33.4060   62.7830 C.3     0  <0>0        0.0242
     11  C17       13.4790   34.0810   62.2500 C.3     0  <0>0        0.0274
     12  C16       14.6870   33.5540   62.9690 C.2     0  <0>0       -0.0306
     13  C15       14.7000   32.4630   63.6660 C.2     0  <0>0       -0.0307
     14  C14       13.5050   31.5740   63.8570 C.3     0  <0>0        0.0258
     15  C13       12.4400   31.8890   62.8050 C.3     0  <0>0        0.0067
     16  C4         8.0060   37.2260   57.3120 C.2     0  <0>0        0.3412
     17  O2         8.2100   38.3550   56.9140 O.2     0  <0>0       -0.2449
     18  O1         7.0660   36.4630   56.7210 O.3     0  <0>0       -0.4454
     19  C3         5.8110   36.3430   57.3930 C.3     0  <0>0        0.2088
     20  C2         5.6610   34.9230   57.9430 C.3     0  <0>0        0.0475
     21  C1         5.6840   34.9650   59.4720 C.3     0  <0>0        0.0040
@<TRIPOS>BOND
     1    18    16    1
     2    18    19    1
     3    17    16    2
     4    16     1    1
     5    19    20    1
     6    20    21    1
     7     2     1   ar
     8     2     3   ar
     9     1     6   ar
    10     3     4   ar
    11     6     5   ar
    12     4     5   ar
    13     4     7    1
    14     7     9    1
    15     7     8    1
    16     9    10    1
    17    11    10    1
    18    11    12    1
    19    10    15    1
    20    15    14    1
    21    12    13    2
    22    13    14    1
