@<TRIPOS>MOLECULE
ZINC43735787_replica-1.pdb
 25 26 0 0 0
SMALL
GASTEIGER

@<TRIPOS>ATOM
      1  C7         5.9900   35.2960   59.2320 C.3     0  <0>0        0.0719
      2  C8         7.1060   34.2760   59.0610 C.3     0  <0>0        0.1463
      3  O3         8.0300   34.6870   58.0550 O.3     0  <0>0       -0.3514
      4  C9         8.6310   35.9640   58.2970 C.3     0  <0>0        0.1405
      5  C10        7.5100   37.0180   58.3010 C.3     0  <0>0        0.0496
      6  C11        6.5730   36.6940   59.4740 C.3     0  <0>0        0.0125
      7  C12        7.3410   36.7120   60.7970 C.3     0  <0>0        0.0006
      8  C13        6.7430   36.8700   57.0120 C.2     0  <0>0       -0.0458
      9  C14        5.6920   36.1240   56.8960 C.2     0  <0>0       -0.0346
     10  C15        5.0950   35.3300   58.0000 C.3     0  <0>0        0.0272
     11  C16        3.7580   35.9760   58.3680 C.3     0  <0>0        0.0049
     12  C17        7.2250   37.6240   55.7990 C.3     0  <0>0        0.0261
     13  C6         5.1430   34.9010   60.4430 C.3     0  <0>0        0.2126
     14  O2         5.1030   33.4770   60.5520 O.3     0  <0>0       -0.4346
     15  C5         3.9000   32.8870   60.4090 C.2     0  <0>0        0.4016
     16  N1         2.9320   33.1060   61.3190 N.am    0  <0>0       -0.2707
     17  H14        3.1000   33.6880   62.0780 H       0  <0>0        0.1527
     18  O1         3.6900   32.1590   59.4600 O.2     0  <0>0       -0.2264
     19  C4         1.6230   32.4640   61.1650 C.3     0  <0>0        0.0927
     20  C3         0.5190   33.5110   61.3280 C.3     0  <0>0        0.0214
     21  C2         0.6360   34.5530   60.2140 C.3     0  <0>0        0.0018
     22  C1         0.4030   33.8790   58.8600 C.3     0  <0>0        0.0001
     23  C18        9.3290   35.9540   59.6330 C.2     0  <0>0       -0.0014
     24  C19       10.3590   35.1690   59.8280 C.2     0  <0>0       -0.0280
     25  C20       10.9830   35.0710   61.1960 C.3     0  <0>0        0.0304
@<TRIPOS>BOND
     1    12     8    1
     2     9     8    2
     3     9    10    1
     4     8     5    1
     5    10    11    1
     6    10     1    1
     7     3     4    1
     8     3     2    1
     9     4     5    1
    10     4    23    1
    11     5     6    1
    12    22    21    1
    13     2     1    1
    14     1     6    1
    15     1    13    1
    16    18    15    2
    17     6     7    1
    18    23    24    2
    19    24    25    1
    20    21    20    1
    21    15    14    1
    22    15    16   am
    23    13    14    1
    24    19    16    1
    25    19    20    1
    26    16    17    1
