@<TRIPOS>MOLECULE
ZINC49991661_replica-1.pdb
 21 22 0 0 0
SMALL
GASTEIGER

@<TRIPOS>ATOM
      1  S1         7.0750   34.1500   57.2160 S.O2    0  <0>0        0.0792
      2  O1         7.2660   33.4120   56.0170 O.2     0  <0>0       -0.1496
      3  O2         7.1590   33.5510   58.5010 O.2     0  <0>0       -0.1496
      4  N1         8.1800   35.3830   57.1950 N.pl3   0  <0>0       -0.1890
      5  C8         8.5030   36.0560   55.9340 C.3     0  <0>0        0.1391
      6  C7         8.8040   35.7820   58.3790 C.ar    0  <0>0        0.0649
      7  C2         8.4450   36.9790   58.9850 C.ar    0  <0>0       -0.0070
      8  C1         7.3820   37.8490   58.3660 C.3     0  <0>0        0.0324
      9  C3         9.0600   37.3680   60.1590 C.ar    0  <0>0       -0.0030
     10  C4        10.0360   36.5710   60.7270 C.ar    0  <0>0       -0.0002
     11  C5        10.3990   35.3800   60.1230 C.ar    0  <0>0        0.0013
     12  C6         9.7890   34.9850   58.9500 C.ar    0  <0>0        0.0158
     13  C9         5.4750   34.8820   57.1050 C.ar    0  <0>0        0.1590
     14  C14        4.7690   35.1790   58.2560 C.ar    0  <0>0        0.0579
     15  C13        3.5170   35.7580   58.1700 C.ar    0  <0>0        0.0378
     16 Br          5.5210   34.8010   59.9490 Br      0  <0>0       -0.0475
     17  C12        2.9640   36.0310   56.9300 C.ar    0  <0>0        0.1430
     18  C11        3.6670   35.7280   55.7770 C.ar    0  <0>0        0.0607
     19  F1         1.7380   36.5930   56.8460 F       0  <0>0       -0.2041
     20  C10        4.9230   35.1530   55.8640 C.ar    0  <0>0        0.1616
     21  F2         5.6110   34.8580   54.7390 F       0  <0>0       -0.2027
@<TRIPOS>BOND
     1    21    20    1
     2    18    20   ar
     3    18    17   ar
     4    20    13   ar
     5     5     4    1
     6     2     1    2
     7    19    17    1
     8    17    15   ar
     9    13     1    1
    10    13    14   ar
    11     4     1    1
    12     4     6    1
    13     1     3    2
    14    15    14   ar
    15    14    16    1
    16     8     7    1
    17     6    12   ar
    18     6     7   ar
    19    12    11   ar
    20     7     9   ar
    21    11    10   ar
    22     9    10   ar
