@<TRIPOS>MOLECULE
ZINC49497130_replica-1.pdb
 22 22 0 0 0
SMALL
GASTEIGER

@<TRIPOS>ATOM
      1  C7         6.6560   35.7730   57.6660 C.2     0  <0>0        0.2288
      2  O1         6.1420   36.4810   56.8260 O.2     0  <0>0       -0.2747
      3  N1         6.0260   34.6590   58.0880 N.am    0  <0>0       -0.2545
      4  H13        6.4370   34.0930   58.7600 H       0  <0>0        0.1577
      5  C6         8.0020   36.1390   58.2370 C.3     0  <0>0        0.0961
      6  C3         7.8290   37.2430   59.2820 C.3     0  <0>0        0.1024
      7  C2         9.0960   37.3420   60.1350 C.3     0  <0>0        0.0112
      8  C1         9.9270   36.0680   59.9640 C.3     0  <0>0        0.0006
      9  C4         7.5850   38.5790   58.5770 C.3     0  <0>0        0.0112
     10  C5         8.6520   38.7910   57.5010 C.3     0  <0>0        0.0006
     11  C15        6.6520   36.9190   60.1660 C.2     0  <0>0        0.3643
     12  O2         5.7000   37.6790   60.2160 O.co2   0  <0>0       -0.2457
     13  O3         6.6530   35.8970   60.8320 O.co2   0  <0>0       -0.2457
     14  C8         4.7850   34.3220   57.5610 C.2     0  <0>0        0.2126
     15  S1         4.4430   33.3650   56.2180 S.3     0  <0>0       -0.0597
     16  C10        2.6620   33.4720   56.2860 C.3     0  <0>0        0.1201
     17  C9         2.4980   34.2690   57.3710 C.2     0  <0>0        0.0994
     18  N2         3.5910   34.6760   57.9870 N.2     0  <0>0       -0.3885
     19  C11        1.1280   34.6700   57.8520 C.3     0  <0>0        0.0436
     20  C12        0.5440   35.7260   56.9100 C.3     0  <0>0        0.0067
     21  C13        0.2140   33.4420   57.8700 C.3     0  <0>0        0.0067
     22  C14        1.2310   35.2490   59.2650 C.3     0  <0>0        0.0067
@<TRIPOS>BOND
     1    15    16    1
     2    15    14    1
     3    16    17    1
     4     2     1    2
     5    20    19    1
     6    17    19    1
     7    17    18    2
     8    10     9    1
     9    14    18    2
    10    14     3    1
    11     1     3   am
    12     1     5    1
    13    19    21    1
    14    19    22    1
    15     3     4    1
    16     5     6    1
    17     9     6    1
    18     6     7    1
    19     6    11    1
    20     8     7    1
    21    11    12   ar
    22    11    13   ar
