@<TRIPOS>MOLECULE
ZINC37238330_replica-1.pdb
 24 27 0 0 0
SMALL
GASTEIGER

@<TRIPOS>ATOM
      1  C1         3.9650   36.0770   56.2930 C.3     0  <0>0        0.0000
      2  C2         4.1870   35.5020   57.6960 C.3     0  <0>0        0.0003
      3  C3         3.1420   36.0760   58.6510 C.3     0  <0>0        0.0050
      4  C4         1.7380   35.6580   58.2120 C.3     0  <0>0        0.0562
      5  C5         1.6250   34.1350   58.1540 C.3     0  <0>0        0.1872
      6  C6         2.6770   33.5630   57.2010 C.3     0  <0>0        0.0562
      7  C7         4.0690   33.9800   57.6760 C.3     0  <0>0        0.0048
      8  C8         5.1450   33.3460   56.8010 C.3     0  <0>0        0.0002
      9  C9         6.5370   33.7490   57.3050 C.3     0  <0>0        0.0000
     10  C10        6.3650   34.6370   58.5360 C.3     0  <0>0        0.0004
     11  C11        5.6010   35.8980   58.1420 C.3     0  <0>0        0.0000
     12  C12        5.5830   36.9270   59.2570 C.3     0  <0>0        0.0004
     13  C13        6.9850   37.3100   59.7450 C.3     0  <0>0        0.0069
     14  C14        8.0470   36.4370   59.1330 C.3     0  <0>0        0.0515
     15  C15        7.6460   34.9530   59.2390 C.3     0  <0>0        0.0070
     16  C16        8.9270   34.2570   58.7580 C.3     0  <0>0        0.0082
     17  C17       10.0390   35.1210   59.4180 C.3     0  <0>0        0.0645
     18  C18        9.3690   36.4090   59.8850 C.2     0  <0>0        0.1498
     19  O1         9.7740   37.2240   60.6650 O.2     0  <0>0       -0.2961
     20  C19        8.3770   36.8710   57.7070 C.3     0  <0>0        0.0073
     21  O2         1.8160   33.5910   59.4620 O.3     0  <0>0       -0.3316
     22  C20        0.7390   33.8530   60.3640 C.3     0  <0>0        0.1767
     23  O3         0.3220   33.7770   57.6830 O.3     0  <0>0       -0.3316
     24  C21        0.3060   32.6210   56.8430 C.3     0  <0>0        0.1767
@<TRIPOS>BOND
     1     1     2    1
     2     8     9    1
     3     8     7    1
     4    24    23    1
     5     6     7    1
     6     6     5    1
     7     9    10    1
     8     7     2    1
     9    23     5    1
    10     2    11    1
    11     2     3    1
    12    20    14    1
    13    11    10    1
    14    11    12    1
    15     5     4    1
    16     5    21    1
    17     4     3    1
    18    10    15    1
    19    16    15    1
    20    16    17    1
    21    14    15    1
    22    14    13    1
    23    14    18    1
    24    12    13    1
    25    17    18    1
    26    21    22    1
    27    18    19    2
