@<TRIPOS>MOLECULE
ZINC41506577_replica-1.pdb
 30 33 0 0 0
SMALL
GASTEIGER

@<TRIPOS>ATOM
      1  C1         5.8150   33.6330   59.2860 C.3     0  <0>0        0.0374
      2  C2         5.2120   34.5120   58.2210 C.ar    0  <0>0        0.0467
      3  C3         6.0320   35.1410   57.2970 C.ar    0  <0>0        0.1379
      4  C4         5.4880   35.9560   56.3070 C.ar    0  <0>0        0.0369
      5  C5         4.1360   36.1430   56.2380 C.ar    0  <0>0        0.0094
      6  C6         3.2990   35.5150   57.1610 C.ar    0  <0>0        0.0764
      7  C7         3.8360   34.6870   58.1610 C.ar    0  <0>0        0.1474
      8  O1         2.8380   34.1920   58.9250 O.3     0  <0>0       -0.4504
      9  C8         1.6240   34.6240   58.5110 C.2     0  <0>0        0.1841
     10  C9         0.4270   34.3080   59.0680 C.2     0  <0>0        0.0439
     11  C16        1.8380   35.5110   57.3570 C.2     0  <0>0        0.2327
     12  O2         0.9960   36.0980   56.7020 O.2     0  <0>0       -0.2832
     13  O3         7.3750   34.9610   57.3570 O.3     0  <0>0       -0.4707
     14  C17        8.1810   36.1340   57.4980 C.3     0  <0>0        0.2350
     15  C18        8.8930   36.0980   58.8250 C.ar    0  <0>0        0.0551
     16  C23        8.5570   37.0060   59.8190 C.ar    0  <0>0        0.1382
     17  C22        9.2100   36.9660   61.0420 C.ar    0  <0>0        0.0367
     18  C21       10.2000   36.0290   61.2650 C.ar    0  <0>0        0.0031
     19  C20       10.5370   35.1270   60.2710 C.ar    0  <0>0       -0.0000
     20  C19        9.8840   35.1620   59.0530 C.ar    0  <0>0        0.0023
     21  O4         7.5860   37.9310   59.5950 O.3     0  <0>0       -0.4716
     22  C24        6.2850   37.6420   60.1100 C.3     0  <0>0        0.2525
     23  C10        0.3720   33.4150   60.2320 C.ar    0  <0>0        0.0412
     24  C15        0.6280   32.0460   60.0820 C.ar    0  <0>0        0.0599
     25  C14        0.5790   31.2150   61.1830 C.ar    0  <0>0        0.0115
     26 Cl          1.0140   31.3980   58.5190 Cl      0  <0>0       -0.0822
     27  C13        0.2660   31.7270   62.4310 C.ar    0  <0>0        0.0032
     28  C12        0.0040   33.0770   62.5880 C.ar    0  <0>0        0.0297
     29  C11        0.0550   33.9260   61.4990 C.ar    0  <0>0        0.1410
     30  F1        -0.2000   35.2440   61.6550 F       0  <0>0       -0.2041
@<TRIPOS>BOND
     1     5     4   ar
     2     5     6   ar
     3     4     3   ar
     4    12    11    2
     5     6    11    1
     6     6     7   ar
     7     3    13    1
     8     3     2   ar
     9    11     9    1
    10    13    14    1
    11    14    15    1
    12     7     2   ar
    13     7     8    1
    14     2     1    1
    15     9     8    1
    16     9    10    2
    17    26    24    1
    18    15    20   ar
    19    15    16   ar
    20    20    19   ar
    21    10    23    1
    22    21    16    1
    23    21    22    1
    24    16    17   ar
    25    24    23   ar
    26    24    25   ar
    27    23    29   ar
    28    19    18   ar
    29    17    18   ar
    30    25    27   ar
    31    29    30    1
    32    29    28   ar
    33    27    28   ar
