@<TRIPOS>MOLECULE
ZINC36956606_replica-1.pdb
 22 23 0 0 0
SMALL
GASTEIGER

@<TRIPOS>ATOM
      1  N1        -1.7330   29.4430   55.0820 N.pl3   0  <0>0       -0.3308
      2  H12       -2.3810   28.7800   55.3670 H       0  <0>0        0.1471
      3  C2        -1.4740   29.6480   53.6550 C.3     0  <0>0        0.0919
      4  C1        -2.7030   30.2780   52.9980 C.3     0  <0>0        0.0261
      5  C3        -1.1800   28.3220   53.0030 C.ar    0  <0>0       -0.0044
      6  C8        -0.3860   27.3940   53.6510 C.ar    0  <0>0        0.0004
      7  C7        -0.1210   26.1750   53.0570 C.ar    0  <0>0        0.0366
      8  C6        -0.6430   25.8860   51.8050 C.ar    0  <0>0        0.1387
      9  C5        -1.4340   26.8210   51.1540 C.ar    0  <0>0        0.0366
     10  C4        -1.7020   28.0360   51.7550 C.ar    0  <0>0        0.0004
     11  O1        -0.3790   24.6900   51.2170 O.3     0  <0>0       -0.4714
     12  C9        -0.3800   23.5370   52.0610 C.3     0  <0>0        0.2525
     13  C10       -1.0480   30.2030   56.0330 C.ar    0  <0>0        0.0407
     14  C15       -0.8860   29.7210   57.3250 C.ar    0  <0>0       -0.0097
     15  C14       -0.2050   30.4730   58.2610 C.ar    0  <0>0       -0.0031
     16  C13        0.3080   31.7090   57.9170 C.ar    0  <0>0       -0.0002
     17  C12        0.1450   32.1970   56.6320 C.ar    0  <0>0        0.0012
     18  C11       -0.5320   31.4460   55.6890 C.ar    0  <0>0        0.0140
     19  C16       -1.4510   28.3750   57.7040 C.3     0  <0>0        0.0201
     20  C17       -0.5460   27.2700   57.1560 C.3     0  <0>0        0.0044
     21  C18       -1.5250   28.2650   59.2290 C.3     0  <0>0        0.0044
     22  C19       -2.8540   28.2270   57.1140 C.3     0  <0>0        0.0044
@<TRIPOS>BOND
     1     9    10   ar
     2     9     8   ar
     3    11     8    1
     4    11    12    1
     5    10     5   ar
     6     8     7   ar
     7     4     3    1
     8     5     6   ar
     9     5     3    1
    10     7     6   ar
    11     3     1    1
    12     1     2    1
    13     1    13    1
    14    18    13   ar
    15    18    17   ar
    16    13    14   ar
    17    17    16   ar
    18    22    19    1
    19    20    19    1
    20    14    19    1
    21    14    15   ar
    22    19    21    1
    23    16    15   ar
