@<TRIPOS>MOLECULE
ZINC40315428_replica-1.pdb
 32 34 0 0 0
SMALL
GASTEIGER

@<TRIPOS>ATOM
      1  N1         7.7400   37.1270   58.8850 N.4     0  <0>0        0.3930
      2  H38        8.1030   36.2680   58.5010 H       0  <0>0       -0.0790
      3  C11        7.3360   38.0200   57.7910 C.3     0  <0>0       -0.0430
      4  C10        8.2680   37.8160   56.5950 C.3     0  <0>0        0.1335
      5  C9         8.2520   36.3430   56.1810 C.3     0  <0>0        0.2321
      6  O1         7.0240   36.0500   55.5140 O.3     0  <0>0       -0.4733
      7  C6         6.3710   34.9190   55.8910 C.ar    0  <0>0        0.1343
      8  C5         7.0890   33.8150   56.3280 C.ar    0  <0>0        0.0366
      9  C4         6.4230   32.6670   56.7130 C.ar    0  <0>0        0.0028
     10  C3         5.0420   32.6170   56.6600 C.ar    0  <0>0       -0.0044
     11  C2         4.3240   33.7170   56.2260 C.ar    0  <0>0       -0.0229
     12  C1         2.8200   33.6590   56.1710 C.3     0  <0>0        0.0308
     13  C7         4.9860   34.8640   55.8350 C.ar    0  <0>0        0.0082
     14  C8         4.2020   36.0590   55.3540 C.3     0  <0>0        0.0339
     15  O3         7.8240   38.6230   55.5030 O.3     0  <0>0       -0.3828
     16  H37        7.3100   39.3960   55.7690 H       0  <0>0        0.2104
     17  C12        8.7790   37.7820   59.6920 C.3     0  <0>0       -0.0497
     18  C13        9.6660   36.7330   60.3140 C.ar    0  <0>0       -0.0432
     19  C18       10.2790   36.9770   61.5280 C.ar    0  <0>0       -0.0067
     20  C17       11.0880   36.0140   62.1000 C.ar    0  <0>0       -0.0047
     21  C16       11.2910   34.8080   61.4530 C.ar    0  <0>0       -0.0225
     22  C15       10.6810   34.5660   60.2360 C.ar    0  <0>0       -0.0047
     23  C14        9.8690   35.5290   59.6660 C.ar    0  <0>0       -0.0067
     24  C19       12.1760   33.7590   62.0750 C.3     0  <0>0        0.0224
     25  C20       12.8860   34.3500   63.2950 C.3     0  <0>0        0.0047
     26  C21       11.3240   32.5650   62.5100 C.3     0  <0>0        0.0047
     27  C22        6.5760   36.8320   59.7320 C.3     0  <0>0       -0.0466
     28  C23        5.9780   35.4830   59.3260 C.3     0  <0>0        0.0948
     29  O2         6.4250   34.4640   60.2270 O.3     0  <0>0       -0.3584
     30  C26        5.2980   33.8940   60.9170 C.3     0  <0>0        0.1420
     31  C25        4.0850   34.1460   59.9870 C.3     0  <0>0        0.0345
     32  C24        4.4380   35.5460   59.4120 C.3     0  <0>0        0.0299
@<TRIPOS>BOND
     1    14    13    1
     2    15    16    1
     3    15     4    1
     4     6     7    1
     5     6     5    1
     6    13     7   ar
     7    13    11   ar
     8     7     8   ar
     9    12    11    1
    10     5     4    1
    11    11    10   ar
    12     8     9   ar
    13     4     3    1
    14    10     9   ar
    15     3     1    1
    16     2     1    1
    17     1    17    1
    18     1    27    1
    19    28    32    1
    20    28    27    1
    21    28    29    1
    22    32    31    1
    23    23    22   ar
    24    23    18   ar
    25    17    18    1
    26    31    30    1
    27    29    30    1
    28    22    21   ar
    29    18    19   ar
    30    21    24    1
    31    21    20   ar
    32    19    20   ar
    33    24    26    1
    34    24    25    1
