@<TRIPOS>MOLECULE
ZINC20874673_replica-1.pdb
 27 28 0 0 0
SMALL
GASTEIGER

@<TRIPOS>ATOM
      1  C3         6.1860   34.7780   57.8820 C.ar    0  <0>0        0.1723
      2  C4         4.8680   34.5500   57.5220 C.ar    0  <0>0        0.0337
      3  C5         4.2720   35.3270   56.5460 C.ar    0  <0>0       -0.0400
      4  C6         4.9910   36.3300   55.9230 C.ar    0  <0>0        0.0036
      5  C7         6.3060   36.5670   56.2800 C.ar    0  <0>0        0.0711
      6  C8         6.9080   35.7910   57.2590 C.ar    0  <0>0        0.1788
      7 Br          7.2830   37.9450   55.4310 Br      0  <0>0       -0.0457
      8  O2         8.2030   36.0200   57.6090 O.3     0  <0>0       -0.4671
      9  C9         8.4340   36.9590   58.6610 C.3     0  <0>0        0.2322
     10  C10        9.3910   36.3660   59.6620 C.ar    0  <0>0        0.0211
     11  C15        9.7020   37.0610   60.8160 C.ar    0  <0>0       -0.0010
     12  C14       10.5800   36.5170   61.7360 C.ar    0  <0>0       -0.0045
     13  C13       11.1470   35.2780   61.5000 C.ar    0  <0>0       -0.0219
     14  C12       10.8360   34.5830   60.3470 C.ar    0  <0>0       -0.0045
     15  C16       12.1040   34.6850   62.5020 C.3     0  <0>0        0.0310
     16  C11        9.9540   35.1250   59.4300 C.ar    0  <0>0       -0.0010
     17  O1         6.7730   34.0140   58.8420 O.3     0  <0>0       -0.4724
     18  C2         6.0710   33.8740   60.0780 C.3     0  <0>0        0.2057
     19  C1         6.0120   35.2270   60.7890 C.3     0  <0>0        0.0512
     20  C17        2.8380   35.0760   56.1560 C.3     0  <0>0       -0.0540
     21  N1         2.2300   34.1360   57.1060 N.4     0  <0>0        0.3890
     22  H19        1.9160   33.2270   56.5720 H       0  <0>0       -0.0838
     23  H29        2.9640   33.8720   57.8810 H       0  <0>0       -0.0838
     24  C18        1.0530   34.7310   57.7550 C.3     0  <0>0       -0.0455
     25  C19        0.4390   35.7820   56.8300 C.3     0  <0>0       -0.0215
     26  C20        0.0220   33.6380   58.0420 C.3     0  <0>0       -0.0215
     27  C21        1.4760   35.3910   59.0690 C.3     0  <0>0       -0.0215
@<TRIPOS>BOND
     1     7     5    1
     2     4     5   ar
     3     4     3   ar
     4    20     3    1
     5    20    21    1
     6     5     6   ar
     7     3     2   ar
     8    22    21    1
     9    25    24    1
    10    21    24    1
    11    21    23    1
    12     6     8    1
    13     6     1   ar
    14     2     1   ar
    15     8     9    1
    16    24    26    1
    17    24    27    1
    18     1    17    1
    19     9    10    1
    20    17    18    1
    21    16    10   ar
    22    16    14   ar
    23    10    11   ar
    24    18    19    1
    25    14    13   ar
    26    11    12   ar
    27    13    12   ar
    28    13    15    1
