@<TRIPOS>MOLECULE
ZINC21818660_replica-1.pdb
 18 18 0 0 0
SMALL
GASTEIGER

@<TRIPOS>ATOM
      1  N1        -0.0460   29.3170   55.5200 N.pl3   0  <0>0       -0.3323
      2  H18        0.8710   29.9230   55.5480 H       0  <0>0        0.1468
      3  C6        -1.1350   29.5920   56.4610 C.3     0  <0>0        0.0691
      4  C5        -0.6010   29.5160   57.8930 C.3     0  <0>0        0.0195
      5  C3        -1.0110   28.1820   58.5200 C.3     0  <0>0        0.0016
      6  C4        -2.2780   27.6640   57.8370 C.3     0  <0>0        0.0001
      7  C2        -1.2800   28.3820   60.0130 C.3     0  <0>0        0.0001
      8  C1        -2.4340   27.4760   60.4490 C.3     0  <0>0        0.0000
      9  C7        -1.6940   30.9910   56.1990 C.3     0  <0>0        0.0195
     10  C8        -3.0940   30.8750   55.5920 C.3     0  <0>0        0.0017
     11  C9        -0.1750   28.2830   54.5860 C.ar    0  <0>0        0.0725
     12  C14       -0.8770   28.4950   53.4050 C.ar    0  <0>0        0.1536
     13  C13       -0.9980   27.4730   52.4810 C.ar    0  <0>0        0.0376
     14  F1        -1.4370   29.7000   53.1570 F       0  <0>0       -0.2029
     15  C12       -0.4240   26.2400   52.7340 C.ar    0  <0>0        0.0369
     16  C11        0.2720   26.0250   53.9110 C.ar    0  <0>0        0.0081
     17 Br         -0.5890   24.8450   51.4680 Br      0  <0>0       -0.0489
     18  C10        0.3940   27.0430   54.8380 C.ar    0  <0>0        0.0171
@<TRIPOS>BOND
     1    17    15    1
     2    13    15   ar
     3    13    12   ar
     4    15    16   ar
     5    14    12    1
     6    12    11   ar
     7    16    18   ar
     8    11    18   ar
     9    11     1    1
    10     1     2    1
    11     1     3    1
    12    10     9    1
    13     9     3    1
    14     3     4    1
    15     6     5    1
    16     4     5    1
    17     5     7    1
    18     7     8    1
