@<TRIPOS>MOLECULE
ZINC13468500_replica-1.pdb
 29 31 0 0 0
SMALL
GASTEIGER

@<TRIPOS>ATOM
      1  C4         6.2610   36.4640   60.0150 C.2     0  <0>0        0.2238
      2  O1         5.8420   37.5990   60.0950 O.2     0  <0>0       -0.2751
      3  N1         5.6520   35.5760   59.2050 N.am    0  <0>0       -0.2982
      4  H7         5.9870   34.6670   59.1410 H       0  <0>0        0.1500
      5  C5         4.4840   35.9820   58.4190 C.3     0  <0>0        0.1229
      6  C6         4.6630   35.5400   56.9890 C.ar    0  <0>0        0.0003
      7  C11        3.8470   36.0570   56.0000 C.ar    0  <0>0       -0.0000
      8  C10        4.0100   35.6540   54.6880 C.ar    0  <0>0        0.0294
      9  C9         4.9900   34.7320   54.3650 C.ar    0  <0>0        0.1401
     10  C8         5.8070   34.2140   55.3570 C.ar    0  <0>0        0.0294
     11  F1         5.1510   34.3360   53.0830 F       0  <0>0       -0.2042
     12  C7         5.6460   34.6240   56.6670 C.ar    0  <0>0       -0.0000
     13  C12        3.2470   35.3400   58.9920 C.ar    0  <0>0        0.0292
     14  S1         3.1040   33.8770   60.0050 S.2     0  <0>0       -0.0888
     15  C15        1.3300   33.8770   60.2000 C.ar    0  <0>0        0.0352
     16  C14        0.9700   34.9750   59.4910 C.ar    0  <0>0        0.0072
     17  C13        1.9520   35.7250   58.8720 C.ar    0  <0>0        0.0046
     18  C3         7.4620   36.0460   60.8230 C.3     0  <0>0        0.0998
     19  C2         8.7310   36.2420   59.9900 C.3     0  <0>0        0.1211
     20  C1         8.8290   37.7040   59.5500 C.3     0  <0>0        0.0162
     21  C16        9.9370   35.8860   60.8200 C.ar    0  <0>0       -0.0122
     22  C21       10.5910   34.6870   60.6090 C.ar    0  <0>0       -0.0038
     23  C20       11.6980   34.3600   61.3690 C.ar    0  <0>0       -0.0003
     24  C19       12.1510   35.2320   62.3420 C.ar    0  <0>0       -0.0000
     25  C18       11.4960   36.4310   62.5530 C.ar    0  <0>0       -0.0003
     26  C17       10.3930   36.7610   61.7880 C.ar    0  <0>0       -0.0038
     27  C22        8.6760   35.3540   58.7750 C.2     0  <0>0        0.3680
     28  O2         8.9750   35.7950   57.6900 O.co2   0  <0>0       -0.2453
     29  O3         8.2960   34.0730   58.8960 O.co2   0  <0>0       -0.2453
@<TRIPOS>BOND
     1    11     9    1
     2     9     8   ar
     3     9    10   ar
     4     8     7   ar
     5    10    12   ar
     6     7     6   ar
     7    12     6   ar
     8     6     5    1
     9    28    27   ar
    10     5    13    1
    11     5     3    1
    12    27    29   ar
    13    27    19    1
    14    17    13   ar
    15    17    16   ar
    16    13    14   ar
    17     4     3    1
    18     3     1   am
    19    16    15   ar
    20    20    19    1
    21    19    21    1
    22    19    18    1
    23    14    15   ar
    24     1     2    2
    25     1    18    1
    26    22    21   ar
    27    22    23   ar
    28    21    26   ar
    29    23    24   ar
    30    26    25   ar
    31    24    25   ar
