@<TRIPOS>MOLECULE
ZINC39842050_replica-1.pdb
 23 25 0 0 0
SMALL
GASTEIGER

@<TRIPOS>ATOM
      1  N1         3.7190   35.0010   57.8140 N.am    0  <0>0       -0.2523
      2  C10        2.9970   34.4710   58.8820 C.ar    0  <0>0        0.0574
      3  C11        3.4000   33.7290   59.9840 C.ar    0  <0>0        0.0155
      4  C12        2.4720   33.3140   60.9210 C.ar    0  <0>0        0.0080
      5  C13        1.1310   33.6320   60.7760 C.ar    0  <0>0        0.0348
      6  C14        0.7090   34.3690   59.6880 C.ar    0  <0>0        0.0113
      7  C15        1.6380   34.7920   58.7370 C.ar    0  <0>0        0.0578
      8  C16        1.5200   35.5740   57.4910 C.2     0  <0>0        0.2502
      9  O2         0.5120   36.0420   57.0050 O.2     0  <0>0       -0.2816
     10  C17        2.9200   35.6640   56.9620 C.2     0  <0>0        0.2919
     11  O3         3.2670   36.2310   55.9470 O.2     0  <0>0       -0.2661
     12 Br         -0.1220   33.0540   62.0690 Br      0  <0>0       -0.0490
     13  C9         5.1680   34.8570   57.6460 C.3     0  <0>0        0.1024
     14  C8         5.8750   36.0670   58.2610 C.3     0  <0>0        0.0692
     15  C7         7.2140   36.2880   57.5540 C.3     0  <0>0        0.2072
     16  O1         8.0140   37.1880   58.3210 O.3     0  <0>0       -0.4754
     17  C6         8.9040   36.6390   59.1890 C.ar    0  <0>0        0.1386
     18  C1         9.2120   37.2900   60.3750 C.ar    0  <0>0        0.0374
     19  C2        10.1170   36.7290   61.2550 C.ar    0  <0>0        0.0098
     20  C3        10.7150   35.5180   60.9560 C.ar    0  <0>0        0.0348
     21  C4        10.4100   34.8670   59.7730 C.ar    0  <0>0        0.0098
     22 Br         11.9540   34.7530   62.1630 Br      0  <0>0       -0.0490
     23  C5         9.5060   35.4250   58.8900 C.ar    0  <0>0        0.0374
@<TRIPOS>BOND
     1    11    10    2
     2    10     8    1
     3    10     1   am
     4     9     8    2
     5     8     7    1
     6    15    14    1
     7    15    16    1
     8    13     1    1
     9    13    14    1
    10     1     2    1
    11    16    17    1
    12     7     2   ar
    13     7     6   ar
    14     2     3   ar
    15    23    17   ar
    16    23    21   ar
    17    17    18   ar
    18     6     5   ar
    19    21    20   ar
    20     3     4   ar
    21    18    19   ar
    22     5     4   ar
    23     5    12    1
    24    20    19   ar
    25    20    22    1
