@<TRIPOS>MOLECULE
ZINC37085956_replica-1.pdb
 22 23 0 0 0
SMALL
GASTEIGER

@<TRIPOS>ATOM
      1  C4         8.8420   36.4510   59.2840 C.3     0  <0>0        0.0919
      2  C3         8.8580   37.9770   59.1750 C.3     0  <0>0        0.0241
      3  C2         7.4200   38.5020   59.1670 C.3     0  <0>0        0.0020
      4  C1         6.5330   37.5730   59.9980 C.3     0  <0>0        0.0001
      5  C5         9.8410   36.0130   60.3230 C.ar    0  <0>0       -0.0045
      6  C10       10.1550   36.8500   61.3760 C.ar    0  <0>0       -0.0018
      7  C9        11.0670   36.4450   62.3330 C.ar    0  <0>0        0.0111
      8  C8        11.6740   35.2070   62.2300 C.ar    0  <0>0        0.0577
      9  C7        11.3640   34.3710   61.1720 C.ar    0  <0>0        0.0111
     10 Cl         12.8250   34.7000   63.4270 Cl      0  <0>0       -0.0822
     11  C6        10.4470   34.7740   60.2190 C.ar    0  <0>0       -0.0018
     12  N1         9.1940   35.8650   57.9890 N.pl3   0  <0>0       -0.3296
     13  H13       10.1010   35.5630   57.8240 H       0  <0>0        0.1471
     14  C11        8.2220   35.7400   56.9890 C.ar    0  <0>0        0.0583
     15  C16        7.3380   34.6620   57.0050 C.ar    0  <0>0        0.0612
     16  C15        6.3740   34.5460   56.0140 C.ar    0  <0>0        0.0158
     17  C14        6.2990   35.4920   55.0090 C.ar    0  <0>0        0.0014
     18  C13        7.1810   36.5580   54.9900 C.ar    0  <0>0        0.0013
     19  C12        8.1410   36.6840   55.9760 C.ar    0  <0>0        0.0156
     20  N2         7.4190   33.7010   58.0210 N.pl3   0  <0>0       -0.3031
     21  C17        8.4080   32.6240   57.9330 C.3     0  <0>0        0.1123
     22  C18        6.5140   33.7750   59.1710 C.3     0  <0>0        0.1123
@<TRIPOS>BOND
     1    18    17   ar
     2    18    19   ar
     3    17    16   ar
     4    19    14   ar
     5    16    15   ar
     6    14    15   ar
     7    14    12    1
     8    15    20    1
     9    13    12    1
    10    21    20    1
    11    12     1    1
    12    20    22    1
    13     3     2    1
    14     3     4    1
    15     2     1    1
    16     1     5    1
    17    11     5   ar
    18    11     9   ar
    19     5     6   ar
    20     9     8   ar
    21     6     7   ar
    22     8     7   ar
    23     8    10    1
