@<TRIPOS>MOLECULE
ZINC38113559_replica-1.pdb
 22 23 0 0 0
SMALL
GASTEIGER

@<TRIPOS>ATOM
      1  C10        9.1820   36.5380   60.1200 C.3     0  <0>0        0.1217
      2  C7        10.1790   35.7620   60.9400 C.ar    0  <0>0       -0.0022
      3  C6        10.2540   34.3870   60.8190 C.ar    0  <0>0       -0.0029
      4  C5        11.1710   33.6750   61.5700 C.ar    0  <0>0       -0.0045
      5  C4        12.0130   34.3390   62.4420 C.ar    0  <0>0       -0.0225
      6  C9        11.9350   35.7130   62.5670 C.ar    0  <0>0       -0.0045
      7  C8        11.0210   36.4250   61.8120 C.ar    0  <0>0       -0.0029
      8  C2        13.0120   33.5630   63.2610 C.3     0  <0>0        0.0224
      9  C1        12.6740   32.0720   63.2010 C.3     0  <0>0        0.0047
     10  C3        14.4180   33.7900   62.7000 C.3     0  <0>0        0.0047
     11  C11        7.7730   36.2970   60.6680 C.3     0  <0>0        0.1610
     12  O1         7.2810   37.5000   61.2600 O.3     0  <0>0       -0.3799
     13  H15        6.8730   38.1100   60.6300 H       0  <0>0        0.2105
     14  N1         9.2460   36.0960   58.7250 N.pl3   0  <0>0       -0.3280
     15  H16        9.7650   35.3110   58.4890 H       0  <0>0        0.1472
     16  C12        8.5610   36.8050   57.7350 C.ar    0  <0>0        0.0556
     17  C17        7.9150   36.1230   56.7110 C.ar    0  <0>0        0.0707
     18  C16        7.2340   36.8270   55.7360 C.ar    0  <0>0        0.0126
     19 Cl          7.9570   34.3880   56.6600 Cl      0  <0>0       -0.0810
     20  C15        7.2050   38.2090   55.7730 C.ar    0  <0>0        0.0009
     21  C14        7.8520   38.8910   56.7870 C.ar    0  <0>0        0.0013
     22  C13        8.5290   38.1930   57.7680 C.ar    0  <0>0        0.0152
@<TRIPOS>BOND
     1    18    20   ar
     2    18    17   ar
     3    20    21   ar
     4    19    17    1
     5    17    16   ar
     6    21    22   ar
     7    16    22   ar
     8    16    14    1
     9    15    14    1
    10    14     1    1
    11     1    11    1
    12     1     2    1
    13    13    12    1
    14    11    12    1
    15     3     2   ar
    16     3     4   ar
    17     2     7   ar
    18     4     5   ar
    19     7     6   ar
    20     5     6   ar
    21     5     8    1
    22    10     8    1
    23     9     8    1
