@<TRIPOS>MOLECULE
ZINC13690140_replica-1.pdb
 26 28 0 0 0
SMALL
GASTEIGER

@<TRIPOS>ATOM
      1  C8        11.2280   34.3810   61.6130 C.ar    0  <0>0        0.1449
      2  C9        10.1510   33.8320   60.9920 C.ar    0  <0>0        0.0403
      3  C10        9.3750   34.9020   60.5020 C.ar    0  <0>0        0.0375
      4  C11       10.0100   36.0400   60.8450 C.ar    0  <0>0        0.1388
      5  O3        11.1270   35.7210   61.5210 O.2     0  <0>0       -0.4564
      6  C12        9.5430   37.4360   60.5290 C.3     0  <0>0        0.1341
      7  N1         8.0920   37.5270   60.7400 N.3     0  <0>0       -0.2908
      8  H9         7.6790   36.5190   60.8880 H       0  <0>0        0.1237
      9  C13        7.4280   38.1440   59.5840 C.3     0  <0>0        0.0736
     10  C14        8.3150   37.9930   58.3460 C.3     0  <0>0        0.0434
     11  C15        7.5920   37.1760   57.3070 C.ar    0  <0>0       -0.0207
     12  C20        8.0850   37.1060   56.0170 C.ar    0  <0>0       -0.0034
     13  C19        7.4220   36.3560   55.0630 C.ar    0  <0>0        0.0111
     14  C18        6.2650   35.6760   55.4010 C.ar    0  <0>0        0.0577
     15  C17        5.7720   35.7470   56.6910 C.ar    0  <0>0        0.0111
     16 Cl          5.4310   34.7350   54.2040 Cl      0  <0>0       -0.0822
     17  C16        6.4380   36.4930   57.6450 C.ar    0  <0>0       -0.0034
     18  C3        12.3190   33.6380   62.2790 C.ar    0  <0>0        0.0348
     19  C2        13.5950   34.1990   62.3670 C.ar    0  <0>0        0.0030
     20  C1        14.6160   33.5060   62.9880 C.ar    0  <0>0        0.0003
     21  C6        14.3820   32.2580   63.5290 C.ar    0  <0>0        0.0066
     22  C5        13.1110   31.6830   63.4430 C.ar    0  <0>0        0.0799
     23  C4        12.0760   32.3770   62.8180 C.ar    0  <0>0        0.0096
     24  C7        12.8630   30.3440   64.0180 C.2     0  <0>0        0.3878
     25  O1        12.6880   29.3910   63.2870 O.co2   0  <0>0       -0.2406
     26  O2        12.8240   30.1840   65.3550 O.co2   0  <0>0       -0.2406
@<TRIPOS>BOND
     1    16    14    1
     2    13    14   ar
     3    13    12   ar
     4    14    15   ar
     5    12    11   ar
     6    15    17   ar
     7    11    17   ar
     8    11    10    1
     9    10     9    1
    10     9     7    1
    11     3     4   ar
    12     3     2   ar
    13     6     7    1
    14     6     4    1
    15     7     8    1
    16     4     5   ar
    17     2     1   ar
    18     5     1   ar
    19     1    18    1
    20    18    19   ar
    21    18    23   ar
    22    19    20   ar
    23    23    22   ar
    24    20    21   ar
    25    25    24   ar
    26    22    21   ar
    27    22    24    1
    28    24    26   ar
