@<TRIPOS>MOLECULE
ZINC19898145_replica-1.pdb
 26 30 0 0 0
SMALL
GASTEIGER

@<TRIPOS>ATOM
      1  C1         0.2570   29.4230   54.5040 C.3     0  <0>0        0.0000
      2  C2        -0.9270   28.5030   54.7910 C.3     0  <0>0        0.0008
      3  C3        -2.1360   29.0030   53.9770 C.3     0  <0>0        0.0078
      4  C4        -1.8010   29.0510   52.4870 C.3     0  <0>0        0.0645
      5  C5        -1.2840   27.6990   52.0480 C.2     0  <0>0        0.1506
      6  O1        -1.7300   27.1520   51.0700 O.2     0  <0>0       -0.2961
      7  C6        -0.1890   27.0540   52.8690 C.3     0  <0>0        0.0645
      8  C7        -0.6190   27.0770   54.3350 C.3     0  <0>0        0.0073
      9  C8         0.4720   26.4690   55.2130 C.3     0  <0>0        0.0004
     10  C9        -0.0790   26.3440   56.6320 C.3     0  <0>0        0.0000
     11  C10       -0.4280   27.7150   57.1940 C.3     0  <0>0        0.0000
     12  C11       -1.3140   28.5290   56.2640 C.3     0  <0>0        0.0000
     13  C12       -1.5570   29.9480   56.7530 C.3     0  <0>0        0.0000
     14  C13       -0.3480   30.6770   57.3330 C.3     0  <0>0        0.0002
     15  C14        0.3970   29.7910   58.3010 C.3     0  <0>0        0.0045
     16  C15        0.8040   28.4910   57.5690 C.3     0  <0>0        0.0002
     17  C16        1.7460   27.8410   58.5920 C.3     0  <0>0        0.0002
     18  C17        2.5830   29.0490   59.0990 C.3     0  <0>0        0.0048
     19  C18        1.7570   30.3190   58.7780 C.3     0  <0>0        0.0516
     20  C23       -0.4640   29.5060   59.5310 C.3     0  <0>0        0.0002
     21  C19        1.5800   31.1670   60.0390 C.3     0  <0>0        0.1872
     22  O3         2.7430   31.9800   60.2410 O.3     0  <0>0       -0.3316
     23  C21        2.3120   33.3560   60.2300 C.3     0  <0>0        0.1767
     24  C20        0.8030   33.2530   60.5610 C.3     0  <0>0        0.1767
     25  O2         0.4360   32.0260   59.8860 O.3     0  <0>0       -0.3316
     26  C22        1.3740   30.2530   61.2480 C.3     0  <0>0        0.0612
@<TRIPOS>BOND
     1     6     5    2
     2     5     4    1
     3     5     7    1
     4     4     3    1
     5     7     8    1
     6     3     2    1
     7     8     2    1
     8     8     9    1
     9     1     2    1
    10     2    12    1
    11     9    10    1
    12    12    13    1
    13    12    11    1
    14    10    11    1
    15    13    14    1
    16    11    16    1
    17    14    15    1
    18    16    15    1
    19    16    17    1
    20    15    19    1
    21    15    20    1
    22    17    18    1
    23    19    18    1
    24    19    21    1
    25    25    21    1
    26    25    24    1
    27    21    22    1
    28    21    26    1
    29    23    22    1
    30    23    24    1
