@<TRIPOS>MOLECULE
ZINC37934827_replica-1.pdb
 22 23 0 0 0
SMALL
GASTEIGER

@<TRIPOS>ATOM
      1  N1         6.1930   35.5770   56.8570 N.3     0  <0>0       -0.2934
      2  H9         5.5880   35.9020   56.1180 H       0  <0>0        0.1236
      3  C4         6.6790   36.7000   57.6700 C.3     0  <0>0        0.0728
      4  C2         8.1720   36.9110   57.4070 C.3     0  <0>0        0.0334
      5  C1         8.6090   36.0430   56.2260 C.3     0  <0>0        0.0058
      6  C3         8.4280   38.3840   57.0810 C.3     0  <0>0        0.0058
      7  C12        8.9570   36.5240   58.6340 C.ar    0  <0>0       -0.0215
      8  C17        9.6440   35.3240   58.6640 C.ar    0  <0>0       -0.0042
      9  C16       10.3680   34.9710   59.7870 C.ar    0  <0>0       -0.0003
     10  C15       10.3980   35.8120   60.8840 C.ar    0  <0>0       -0.0000
     11  C14        9.7070   37.0090   60.8550 C.ar    0  <0>0       -0.0003
     12  C13        8.9860   37.3650   59.7300 C.ar    0  <0>0       -0.0042
     13  C5         5.5140   34.5780   57.6920 C.3     0  <0>0        0.0973
     14  C6         6.5230   33.5810   58.2020 C.ar    0  <0>0        0.0161
     15  C11        6.7200   33.4310   59.5620 C.ar    0  <0>0        0.1402
     16  C10        7.6430   32.5130   60.0290 C.ar    0  <0>0        0.0238
     17  C9         8.3740   31.7520   59.1370 C.ar    0  <0>0        0.0017
     18  C8         8.1790   31.9060   57.7770 C.ar    0  <0>0       -0.0002
     19  C7         7.2540   32.8200   57.3090 C.ar    0  <0>0       -0.0013
     20  N2         5.9410   34.2500   60.5170 N.pl3   0  <0>0        0.0574
     21  O1         6.3450   35.3400   60.8490 O.2     0  <0>0       -0.1261
     22  O2         4.9000   33.8290   60.9660 O.2     0  <0>0       -0.1261
@<TRIPOS>BOND
     1     2     1    1
     2     5     4    1
     3     1     3    1
     4     1    13    1
     5     6     4    1
     6    19    18   ar
     7    19    14   ar
     8     4     3    1
     9     4     7    1
    10    13    14    1
    11    18    17   ar
    12    14    15   ar
    13     7     8   ar
    14     7    12   ar
    15     8     9   ar
    16    17    16   ar
    17    15    16   ar
    18    15    20    1
    19    12    11   ar
    20     9    10   ar
    21    20    21    2
    22    20    22    2
    23    11    10   ar
