@<TRIPOS>MOLECULE
ZINC04839228_replica-1.pdb
 23 25 0 0 0
SMALL
GASTEIGER

@<TRIPOS>ATOM
      1  N1         5.1160   34.2900   57.6640 N.am    0  <0>0       -0.2224
      2  C8         6.3150   34.6980   58.0400 C.2     0  <0>0        0.2633
      3  O2         6.6940   34.5930   59.1920 O.2     0  <0>0       -0.2687
      4  C9         7.1710   35.2920   56.9910 C.2     0  <0>0        0.0853
      5  C10        8.4280   35.7930   57.0820 C.2     0  <0>0        0.0111
      6  S1         6.0960   35.1620   55.5690 S.3     0  <0>0       -0.0601
      7  C17        4.7020   34.4020   56.3850 C.2     0  <0>0        0.1250
      8  S2         3.2030   33.9280   55.7080 S.2     0  <0>0       -0.0269
      9  C5         4.2550   33.7200   58.6150 C.ar    0  <0>0        0.0595
     10  C4         3.3550   34.5220   59.3040 C.ar    0  <0>0        0.0184
     11  C3         2.5080   33.9610   60.2400 C.ar    0  <0>0        0.0382
     12  C2         2.5540   32.5970   60.4880 C.ar    0  <0>0        0.1388
     13  C7         3.4530   31.7970   59.7990 C.ar    0  <0>0        0.0382
     14  C6         4.2960   32.3550   58.8600 C.ar    0  <0>0        0.0184
     15  O1         1.7190   32.0460   61.4090 O.3     0  <0>0       -0.4714
     16  C1         0.7640   32.9170   62.0210 C.3     0  <0>0        0.2525
     17  C11        9.0620   35.9540   58.3990 C.ar    0  <0>0        0.0007
     18  C16        9.8750   34.9390   58.9160 C.ar    0  <0>0        0.0009
     19  C15       10.4650   35.0970   60.1520 C.ar    0  <0>0        0.0114
     20  C14       10.2560   36.2570   60.8800 C.ar    0  <0>0        0.0577
     21  C13        9.4530   37.2650   60.3740 C.ar    0  <0>0        0.0114
     22 Cl         11.0050   36.4460   62.4360 Cl      0  <0>0       -0.0822
     23  C12        8.8560   37.1230   59.1400 C.ar    0  <0>0        0.0009
@<TRIPOS>BOND
     1     6     7    1
     2     6     4    1
     3     8     7    2
     4     7     1    1
     5     4     5    2
     6     4     2    1
     7     5    17    1
     8     1     2   am
     9     1     9    1
    10     2     3    2
    11    17    18   ar
    12    17    23   ar
    13     9    14   ar
    14     9    10   ar
    15    14    13   ar
    16    18    19   ar
    17    23    21   ar
    18    10    11   ar
    19    13    12   ar
    20    19    20   ar
    21    11    12   ar
    22    21    20   ar
    23    12    15    1
    24    20    22    1
    25    15    16    1
