@<TRIPOS>MOLECULE
ZINC51362889_replica-1.pdb
 21 23 0 0 0
SMALL
GASTEIGER

@<TRIPOS>ATOM
      1  C10       10.5580   35.5390   61.0940 C.ar    0  <0>0       -0.0084
      2  C11       10.4240   34.6910   60.0080 C.ar    0  <0>0       -0.0017
      3  C12        9.7370   35.1060   58.8840 C.ar    0  <0>0        0.0202
      4  C13        9.1820   36.3750   58.8450 C.ar    0  <0>0        0.1000
      5  C14        9.3160   37.2300   59.9380 C.ar    0  <0>0        0.1657
      6  C15       10.0020   36.8020   61.0640 C.ar    0  <0>0        0.0357
      7  O1         8.6840   38.3870   59.6250 O.2     0  <0>0       -0.4068
      8  C16        8.1670   38.2860   58.3900 C.ar    0  <0>0        0.4220
      9  O2         7.5390   39.1570   57.8180 O.2     0  <0>0       -0.2226
     10  N1         8.4510   37.0710   57.8820 N.ar    0  <0>0       -0.2601
     11  C17        8.0620   36.5720   56.5610 C.3     0  <0>0        0.1369
     12  C9        11.3090   35.0770   62.3170 C.3     0  <0>0        0.0836
     13 Br         11.8110   36.6350   63.4050 Br      0  <0>0       -0.0765
     14  C8        12.5710   34.3270   61.8880 C.3     0  <0>0        0.0418
     15  C7        12.6830   33.0430   62.6700 C.ar    0  <0>0       -0.0249
     16  C2        13.8850   32.6960   63.2580 C.ar    0  <0>0       -0.0258
     17  C1        15.0820   33.6010   63.1180 C.3     0  <0>0        0.0307
     18  C3        13.9870   31.5220   63.9810 C.ar    0  <0>0       -0.0046
     19  C4        12.8890   30.6920   64.1100 C.ar    0  <0>0       -0.0003
     20  C5        11.6890   31.0380   63.5170 C.ar    0  <0>0       -0.0003
     21  C6        11.5860   32.2120   62.7950 C.ar    0  <0>0       -0.0045
@<TRIPOS>BOND
     1    11    10    1
     2     9     8    2
     3    10     8   ar
     4    10     4   ar
     5     8     7   ar
     6     4     3   ar
     7     4     5   ar
     8     3     2   ar
     9     7     5   ar
    10     5     6   ar
    11     2     1   ar
    12     6     1   ar
    13     1    12    1
    14    14    12    1
    15    14    15    1
    16    12    13    1
    17    15    21   ar
    18    15    16   ar
    19    21    20   ar
    20    17    16    1
    21    16    18   ar
    22    20    19   ar
    23    18    19   ar
