@<TRIPOS>MOLECULE
ZINC36532868_replica-1.pdb
 12 12 0 0 0
SMALL
GASTEIGER

@<TRIPOS>ATOM
      1  C1         0.3970   25.6370   53.8850 C.3     0  <0>0        0.0315
      2  C2        -0.0460   27.0210   54.2850 C.ar    0  <0>0       -0.0159
      3  C3         0.2450   27.5020   55.5480 C.ar    0  <0>0        0.0045
      4  C4        -0.1610   28.7710   55.9140 C.ar    0  <0>0        0.0567
      5  C5        -0.8580   29.5610   55.0180 C.ar    0  <0>0        0.1494
      6  C6        -1.1490   29.0800   53.7560 C.ar    0  <0>0        0.0300
      7  C7        -0.7390   27.8120   53.3860 C.ar    0  <0>0        0.0278
      8  I1        -1.1720   27.0870   51.4690 I       0  <0>0       -0.0428
      9 Br          0.2360   29.4290   57.6430 Br      0  <0>0       -0.0473
     10  N1        -1.2940   30.9210   55.4110 N.pl3   0  <0>0        0.0582
     11  O1        -0.5480   31.8600   55.2620 O.2     0  <0>0       -0.1261
     12  O2        -2.3950   31.0900   55.8790 O.2     0  <0>0       -0.1261
@<TRIPOS>BOND
     1     8     7    1
     2     7     6   ar
     3     7     2   ar
     4     6     5   ar
     5     1     2    1
     6     2     3   ar
     7     5    10    1
     8     5     4   ar
     9    11    10    2
    10    10    12    2
    11     3     4   ar
    12     4     9    1
