@<TRIPOS>MOLECULE
ZINC38587365_replica-1.pdb
 22 23 0 0 0
SMALL
GASTEIGER

@<TRIPOS>ATOM
      1  N1         1.1960   32.9100   55.9790 N.am    0  <0>0       -0.2906
      2  C6         0.9640   31.5830   56.0370 C.2     0  <0>0        0.3007
      3  O1         1.1110   30.9860   57.0870 O.2     0  <0>0       -0.2528
      4  N2         0.5700   30.9190   54.9330 N.am    0  <0>0       -0.2886
      5  H12        1.0800   33.3860   55.1420 H       0  <0>0        0.1509
      6  H13        0.4530   31.3960   54.0970 H       0  <0>0        0.1510
      7  C7         0.3180   29.4770   54.9970 C.3     0  <0>0        0.0953
      8  C8        -1.0930   29.1820   54.4820 C.3     0  <0>0        0.0426
      9  C12       -1.7480   30.4770   53.9690 C.3     0  <0>0        0.0062
     10  C11       -3.0090   30.7020   54.8290 C.3     0  <0>0        0.0004
     11  C10       -2.7190   29.9290   56.1400 C.3     0  <0>0        0.0004
     12  C9        -1.9780   28.6660   55.6340 C.3     0  <0>0        0.0062
     13  C13       -1.0350   28.1610   53.3760 C.ar    0  <0>0        0.0082
     14  S1        -0.2350   26.5630   53.3620 S.2     0  <0>0       -0.0907
     15  C16       -0.6760   26.0760   51.7020 C.ar    0  <0>0        0.0351
     16  C15       -1.3880   27.1480   51.2750 C.ar    0  <0>0        0.0072
     17  C14       -1.5710   28.2160   52.1320 C.ar    0  <0>0        0.0027
     18  C3         1.6250   33.6320   57.1790 C.3     0  <0>0        0.0730
     19  C2         2.6220   34.7250   56.7880 C.3     0  <0>0        0.0196
     20  C1         1.9570   36.0960   56.9320 C.3     0  <0>0        0.0017
     21  C4         0.4070   34.2700   57.8520 C.3     0  <0>0        0.0196
     22  C5         0.3190   33.7940   59.3030 C.3     0  <0>0        0.0017
@<TRIPOS>BOND
     1    16    15   ar
     2    16    17   ar
     3    15    14   ar
     4    17    13   ar
     5    14    13   ar
     6    13     8    1
     7     9     8    1
     8     9    10    1
     9     6     4    1
    10     8     7    1
    11     8    12    1
    12    10    11    1
    13     4     7    1
    14     4     2   am
    15     5     1    1
    16    12    11    1
    17     1     2   am
    18     1    18    1
    19     2     3    2
    20    19    20    1
    21    19    18    1
    22    18    21    1
    23    21    22    1
