@<TRIPOS>MOLECULE
ZINC00491581_replica-1.pdb
 25 26 0 0 0
SMALL
GASTEIGER

@<TRIPOS>ATOM
      1  C9         0.2670   32.9170   57.5330 C.2     0  <0>0        0.2856
      2  O2         0.9880   33.2000   56.5990 O.2     0  <0>0       -0.2693
      3  N1        -0.5480   31.8450   57.4540 N.am    0  <0>0       -0.2028
      4  H9        -1.1210   31.6180   58.2030 H       0  <0>0        0.1774
      5  N2        -0.5620   31.0600   56.2950 N.2     0  <0>0       -0.1775
      6  C10       -0.6030   29.7660   56.3880 C.2     0  <0>0        0.1176
      7  C11       -0.6180   28.9390   55.1670 C.ar    0  <0>0        0.0207
      8  C16       -1.3760   29.3320   54.0620 C.ar    0  <0>0        0.0013
      9  C15       -1.3850   28.5520   52.9240 C.ar    0  <0>0       -0.0042
     10  C14       -0.6450   27.3850   52.8750 C.ar    0  <0>0       -0.0225
     11  C13        0.1090   26.9890   53.9660 C.ar    0  <0>0       -0.0042
     12  C12        0.1310   27.7610   55.1090 C.ar    0  <0>0        0.0013
     13  C17       -0.6600   26.5390   51.6280 C.3     0  <0>0        0.0224
     14  C18       -0.6490   25.0580   52.0150 C.3     0  <0>0        0.0047
     15  C19       -1.9220   26.8440   50.8190 C.3     0  <0>0        0.0047
     16  C8         0.2820   33.7630   58.7800 C.3     0  <0>0        0.2911
     17  O1         1.2590   33.2510   59.6890 O.3     0  <0>0       -0.4662
     18  C7         0.8080   32.4620   60.7000 C.ar    0  <0>0        0.1312
     19  C2         1.0970   31.1060   60.7050 C.ar    0  <0>0        0.0118
     20  C1         1.9140   30.5050   59.5900 C.3     0  <0>0        0.0342
     21  C3         0.6420   30.3080   61.7360 C.ar    0  <0>0       -0.0013
     22  C4        -0.1110   30.8570   62.7580 C.ar    0  <0>0       -0.0004
     23  C5        -0.4070   32.2080   62.7520 C.ar    0  <0>0       -0.0013
     24  C6         0.0510   33.0110   61.7250 C.ar    0  <0>0        0.0118
     25  C20       -0.2710   34.4830   61.7190 C.3     0  <0>0        0.0342
@<TRIPOS>BOND
     1    15    13    1
     2    13    14    1
     3    13    10    1
     4    10     9   ar
     5    10    11   ar
     6     9     8   ar
     7    11    12   ar
     8     8     7   ar
     9    12     7   ar
    10     7     6    1
    11     5     6    2
    12     5     3    1
    13     2     1    2
    14     3     1   am
    15     3     4    1
    16     1    16    1
    17    16    17    1
    18    20    19    1
    19    17    18    1
    20    18    19   ar
    21    18    24   ar
    22    19    21   ar
    23    25    24    1
    24    24    23   ar
    25    21    22   ar
    26    23    22   ar
