@<TRIPOS>MOLECULE
ZINC55503489_replica-1.pdb
 25 28 0 0 0
SMALL
GASTEIGER

@<TRIPOS>ATOM
      1  C9         7.7910   36.2540   57.4550 C.2     0  <0>0       -0.0001
      2  C10        8.3710   36.2820   56.2310 C.2     0  <0>0        0.0342
      3  S1         6.9840   36.1830   55.1160 S.3     0  <0>0       -0.0588
      4  C11        5.6720   36.1090   56.3070 C.2     0  <0>0        0.1520
      5  C12        6.3390   36.1550   57.5420 C.3     0  <0>0        0.1579
      6  C13        5.5020   36.1050   58.7020 C.2     0  <0>0        0.2386
      7  O1         5.9890   36.1440   59.8190 O.2     0  <0>0       -0.2739
      8  N1         4.1690   36.0130   58.5410 N.am    0  <0>0       -0.2623
      9  H1         3.5970   35.9790   59.3230 H       0  <0>0        0.1569
     10  C14        3.6090   35.9690   57.3050 C.2     0  <0>0        0.1652
     11  N2         4.3470   36.0240   56.2270 N.2     0  <0>0       -0.3883
     12  C5         8.6190   36.3170   58.6850 C.ar    0  <0>0       -0.0029
     13  C4         8.8100   37.5340   59.3370 C.ar    0  <0>0       -0.0006
     14  C3         9.5810   37.5880   60.4810 C.ar    0  <0>0       -0.0046
     15  C2        10.1610   36.4350   60.9800 C.ar    0  <0>0       -0.0258
     16  C1        11.0020   36.5000   62.2300 C.3     0  <0>0        0.0307
     17  C7         9.9790   35.2250   60.3340 C.ar    0  <0>0       -0.0258
     18  C6         9.2060   35.1600   59.1930 C.ar    0  <0>0       -0.0048
     19  C8        10.6200   33.9770   60.8820 C.3     0  <0>0        0.0307
     20  C15        2.1110   35.8670   57.1730 C.3     0  <0>0        0.1044
     21  C16        1.6920   34.3970   57.2350 C.3     0  <0>0        0.1237
     22  O2         2.6410   33.6530   58.0090 O.3     0  <0>0       -0.3558
     23  C19        1.9960   33.0970   59.1680 C.3     0  <0>0        0.1421
     24  C18        0.4980   32.9890   58.7850 C.3     0  <0>0        0.0346
     25  C17        0.3200   34.2720   57.9300 C.3     0  <0>0        0.0326
@<TRIPOS>BOND
     1     3     2    1
     2     3     4    1
     3    11     4    2
     4    11    10    2
     5     2     1    2
     6     4     5    1
     7    20    21    1
     8    20    10    1
     9    21    25    1
    10    21    22    1
    11    10     8    1
    12     1     5    1
    13     1    12    1
    14     5     6    1
    15    25    24    1
    16    22    23    1
    17     8     6   am
    18     8     9    1
    19    12    18   ar
    20    12    13   ar
    21     6     7    2
    22    24    23    1
    23    18    17   ar
    24    13    14   ar
    25    17    19    1
    26    17    15   ar
    27    14    15   ar
    28    15    16    1
