@<TRIPOS>MOLECULE
ZINC51720927_replica-1.pdb
 20 21 0 0 0
SMALL
GASTEIGER

@<TRIPOS>ATOM
      1  C7        -1.7670   29.3450   54.9120 C.3     0  <0>0        0.1277
      2  C6        -1.6270   29.0690   56.3870 C.ar    0  <0>0        0.0271
      3  C5        -2.1790   28.0760   57.1250 C.ar    0  <0>0        0.0040
      4  C4        -1.9090   28.0170   58.4790 C.ar    0  <0>0        0.0024
      5  C3        -1.1010   28.9560   59.0290 C.ar    0  <0>0        0.0070
      6  S1        -0.6980   29.9700   57.6160 S.2     0  <0>0       -0.0939
      7  C2        -0.6610   29.1080   60.4620 C.3     0  <0>0        0.0330
      8  C1        -1.7760   28.6250   61.3920 C.3     0  <0>0        0.0056
      9  C8        -1.8470   30.8560   54.6810 C.3     0  <0>0        0.1616
     10  O1        -0.5660   31.3440   54.2780 O.3     0  <0>0       -0.3799
     11  H11       -0.1400   31.9150   54.9330 H       0  <0>0        0.2105
     12  N1        -0.6060   28.8030   54.2010 N.pl3   0  <0>0       -0.3276
     13  H12        0.2850   29.1290   54.4080 H       0  <0>0        0.1472
     14  C9        -0.7800   27.8180   53.2260 C.ar    0  <0>0        0.0556
     15  C14       -0.2500   26.5470   53.4150 C.ar    0  <0>0        0.0707
     16  C13       -0.4290   25.5740   52.4510 C.ar    0  <0>0        0.0126
     17 Cl          0.6310   26.1820   54.8660 Cl      0  <0>0       -0.0810
     18  C12       -1.1270   25.8680   51.2930 C.ar    0  <0>0        0.0009
     19  C11       -1.6500   27.1320   51.1000 C.ar    0  <0>0        0.0013
     20  C10       -1.4790   28.1080   52.0610 C.ar    0  <0>0        0.0152
@<TRIPOS>BOND
     1    19    18   ar
     2    19    20   ar
     3    18    16   ar
     4    20    14   ar
     5    16    15   ar
     6    14    15   ar
     7    14    12    1
     8    15    17    1
     9    12    13    1
    10    12     1    1
    11    10     9    1
    12    10    11    1
    13     9     1    1
    14     1     2    1
    15     2     3   ar
    16     2     6   ar
    17     3     4   ar
    18     6     5   ar
    19     4     5   ar
    20     5     7    1
    21     7     8    1
