@<TRIPOS>MOLECULE
ZINC36993675_replica-1.pdb
 20 21 0 0 0
SMALL
GASTEIGER

@<TRIPOS>ATOM
      1  N1         0.4800   28.2060   56.6730 N.3     0  <0>0       -0.2958
      2  H11       -0.3330   28.6800   56.3100 H       0  <0>0        0.1235
      3  C2         0.2990   27.8630   58.0900 C.3     0  <0>0        0.0618
      4  C1         1.3690   28.5680   58.9270 C.3     0  <0>0        0.0176
      5  C3        -1.0880   28.3150   58.5520 C.3     0  <0>0        0.0802
      6  C4        -1.6960   29.2130   57.5060 C.ar    0  <0>0        0.1243
      7  O1        -1.2510   30.4320   57.1600 O.2     0  <0>0       -0.4546
      8  C7        -2.0340   30.9380   56.1940 C.ar    0  <0>0        0.1791
      9  C6        -3.0010   30.0440   55.9180 C.ar    0  <0>0        0.0434
     10  C5        -2.7840   28.9330   56.7640 C.ar    0  <0>0        0.0362
     11  C8         0.7920   27.0100   55.8780 C.3     0  <0>0        0.0769
     12  C9         0.2920   25.7650   56.6140 C.3     0  <0>0        0.0220
     13  C10        0.1130   27.1080   54.5370 C.ar    0  <0>0       -0.0071
     14  C15        0.1050   26.0190   53.6850 C.ar    0  <0>0        0.0093
     15  C14       -0.5230   26.1070   52.4570 C.ar    0  <0>0        0.0679
     16  C13       -1.1340   27.2890   52.0750 C.ar    0  <0>0        0.0682
     17 Cl         -0.5400   24.7370   51.3900 Cl      0  <0>0       -0.0814
     18  C12       -1.1210   28.3800   52.9260 C.ar    0  <0>0        0.0120
     19 Cl         -1.9170   27.4020   50.5300 Cl      0  <0>0       -0.0814
     20  C11       -0.4970   28.2890   54.1550 C.ar    0  <0>0       -0.0021
@<TRIPOS>BOND
     1    19    16    1
     2    17    15    1
     3    16    15   ar
     4    16    18   ar
     5    15    14   ar
     6    18    20   ar
     7    14    13   ar
     8    20    13   ar
     9    13    11    1
    10    11    12    1
    11    11     1    1
    12     9     8   ar
    13     9    10   ar
    14     8     7   ar
    15     2     1    1
    16     1     3    1
    17    10     6   ar
    18     7     6   ar
    19     6     5    1
    20     3     5    1
    21     3     4    1
