@<TRIPOS>MOLECULE
ZINC43015669_replica-1.pdb
 26 29 0 0 0
SMALL
GASTEIGER

@<TRIPOS>ATOM
      1  C1         7.5900   31.2410   60.3050 C.3     0  <0>0        0.0664
      2  C2         8.4020   32.4780   60.5900 C.2     0  <0>0        0.1089
      3  C3         9.6600   32.3420   61.1630 C.2     0  <0>0        0.0252
      4  C4        10.4180   33.4750   61.4320 C.2     0  <0>0        0.0046
      5  C5         9.8610   34.7380   61.1000 C.3     0  <0>0        0.1008
      6  C6        10.5620   35.9280   61.3380 C.2     0  <0>0       -0.0148
      7  C7         9.9970   37.1230   61.0080 C.2     0  <0>0       -0.0006
      8  C8         8.7290   37.1790   60.4350 C.2     0  <0>0        0.0389
      9  C9         8.0170   36.0400   60.1900 C.2     0  <0>0        0.1648
     10  C10        8.5730   34.7850   60.5200 C.2     0  <0>0        0.1500
     11  N1         7.9030   33.6530   60.2850 N.2     0  <0>0       -0.4068
     12  O1         6.7810   36.1130   59.6310 O.2     0  <0>0       -0.4683
     13  C11        6.5360   37.2030   58.7400 C.3     0  <0>0        0.2339
     14  C12        6.5950   36.7110   57.3170 C.ar    0  <0>0        0.0454
     15  C16        7.6020   37.1330   56.4610 C.ar    0  <0>0        0.0771
     16  C15        7.6260   36.6550   55.1630 C.ar    0  <0>0        0.1101
     17 Cl          8.8200   38.2400   57.0130 Cl      0  <0>0       -0.0808
     18  N2         6.7020   35.8190   54.7340 N.ar    0  <0>0       -0.2406
     19  C14        5.7280   35.4010   55.5180 C.ar    0  <0>0        0.1101
     20  C13        5.6410   35.8300   56.8290 C.ar    0  <0>0        0.0771
     21 Cl          4.3540   35.2730   57.8530 Cl      0  <0>0       -0.0808
     22  C17       11.7610   33.3680   62.0430 C.2     0  <0>0        0.0624
     23  N3        12.7580   34.1650   61.6820 N.2     0  <0>0       -0.2622
     24  C19       13.9400   34.0660   62.2300 C.3     0  <0>0        0.1830
     25  S1        13.7620   32.8020   63.3270 S.3     0  <0>0       -0.1078
     26  C18       12.0430   32.4360   63.0080 C.3     0  <0>0        0.1043
@<TRIPOS>BOND
     1    18    16   ar
     2    18    19   ar
     3    16    15   ar
     4    19    20   ar
     5    15    17    1
     6    15    14   ar
     7    20    14   ar
     8    20    21    1
     9    14    13    1
    10    13    12    1
    11    12     9    1
    12     9     8    2
    13     9    10    1
    14    11    10    2
    15    11     2    2
    16     1     2    1
    17     8     7    1
    18    10     5    1
    19     2     3    1
    20     7     6    2
    21     5     6    1
    22     5     4    1
    23     3     4    2
    24     4    22    1
    25    23    22    2
    26    23    24    1
    27    22    26    1
    28    24    25    1
    29    26    25    1
