@<TRIPOS>MOLECULE
ZINC41635817_replica-1.pdb
 21 22 0 0 0
SMALL
GASTEIGER

@<TRIPOS>ATOM
      1  C9        -0.8580   28.5850   57.0020 C.2     0  <0>0        0.1485
      2  C10       -0.4930   29.3890   58.0980 C.3     0  <0>0        0.1797
      3  C11       -0.9600   29.0430   59.3730 C.2     0  <0>0       -0.0242
      4  C12       -1.7630   27.9230   59.4960 C.2     0  <0>0        0.0200
      5  C13       -2.0790   27.1820   58.3700 C.2     0  <0>0        0.1091
      6  N1        -1.6350   27.5260   57.1780 N.2     0  <0>0       -0.4035
      7  C14       -2.9550   25.9640   58.5100 C.3     0  <0>0        0.0664
      8  C15       -0.5970   29.8690   60.5800 C.3     0  <0>0        0.0274
      9  S1        -0.2870   28.9940   55.3850 S.3     0  <0>0       -0.0811
     10  C8         0.6200   27.5170   54.8540 C.3     0  <0>0        0.0905
     11  C6        -0.0370   26.9380   53.6270 C.ar    0  <0>0       -0.0115
     12  C5         0.1030   25.5950   53.3360 C.ar    0  <0>0       -0.0077
     13  C4        -0.4990   25.0650   52.2100 C.ar    0  <0>0       -0.0224
     14  C3        -1.2450   25.8780   51.3770 C.ar    0  <0>0       -0.0085
     15  C17       -0.3450   23.5990   51.8920 C.3     0  <0>0        0.0310
     16  C2        -1.3870   27.2210   51.6700 C.ar    0  <0>0       -0.0224
     17  C1        -2.1990   28.1080   50.7620 C.3     0  <0>0        0.0310
     18  C7        -0.7800   27.7530   52.7920 C.ar    0  <0>0       -0.0077
     19  C16        0.3640   30.5690   57.9100 C.2     0  <0>0        0.3753
     20  O1        -0.1350   31.6470   57.6200 O.co2   0  <0>0       -0.2448
     21  O2         1.5760   30.4710   58.0420 O.co2   0  <0>0       -0.2448
@<TRIPOS>BOND
     1    17    16    1
     2    14    16   ar
     3    14    13   ar
     4    16    18   ar
     5    15    13    1
     6    13    12   ar
     7    18    11   ar
     8    12    11   ar
     9    11    10    1
    10    10     9    1
    11     9     1    1
    12     1     6    2
    13     1     2    1
    14     6     5    2
    15    20    19   ar
    16    19    21   ar
    17    19     2    1
    18     2     3    1
    19     5     7    1
    20     5     4    1
    21     3     4    2
    22     3     8    1
