@<TRIPOS>MOLECULE
ZINC36096228_replica-1.pdb
 29 30 0 0 0
SMALL
GASTEIGER

@<TRIPOS>ATOM
      1  N1         0.1430   30.6500   58.0240 N.4     0  <0>0        0.3914
      2  H31       -0.5810   31.3450   58.1220 H       0  <0>0       -0.0791
      3  C5        -0.3820   29.3370   58.4220 C.3     0  <0>0       -0.0768
      4  C4        -1.7030   29.0760   57.6980 C.3     0  <0>0       -0.0228
      5  C2        -1.8360   27.5800   57.4020 C.3     0  <0>0       -0.0021
      6  C1        -0.4700   26.9080   57.5520 C.3     0  <0>0       -0.0001
      7  C3        -2.8250   26.9510   58.3850 C.3     0  <0>0       -0.0001
      8  C6         1.2830   31.0030   58.8810 C.3     0  <0>0       -0.0467
      9  C7         0.8170   31.9180   59.9840 C.ar    0  <0>0       -0.0092
     10  C12        0.5380   33.2490   59.7100 C.ar    0  <0>0        0.1327
     11  C11        0.1040   34.0880   60.7260 C.ar    0  <0>0        0.0365
     12  C10       -0.0380   33.5990   62.0100 C.ar    0  <0>0        0.0031
     13  C9         0.2470   32.2730   62.2830 C.ar    0  <0>0       -0.0002
     14  C8         0.6750   31.4340   61.2700 C.ar    0  <0>0       -0.0034
     15  O1         0.6830   33.7300   58.4470 O.3     0  <0>0       -0.4718
     16  C13        0.8430   35.1420   58.3050 C.3     0  <0>0        0.2524
     17  C14        0.5830   30.5970   56.6230 C.3     0  <0>0       -0.0431
     18  C15       -0.4070   31.3680   55.7470 C.3     0  <0>0        0.1335
     19  C16       -0.3240   30.8540   54.3090 C.3     0  <0>0        0.2321
     20  O2        -1.4580   30.0290   54.0320 O.3     0  <0>0       -0.4729
     21  C17       -1.2240   28.8530   53.3930 C.ar    0  <0>0        0.1387
     22  C22       -0.4560   27.8720   54.0060 C.ar    0  <0>0        0.0378
     23  C21       -0.2230   26.6750   53.3590 C.ar    0  <0>0        0.0145
     24  C20       -0.7450   26.4560   52.0960 C.ar    0  <0>0        0.0579
     25  C19       -1.5060   27.4350   51.4810 C.ar    0  <0>0        0.0145
     26 Cl         -0.4440   24.9530   51.2820 Cl      0  <0>0       -0.0822
     27  C18       -1.7460   28.6320   52.1280 C.ar    0  <0>0        0.0378
     28  O3        -0.0840   32.7590   55.7760 O.3     0  <0>0       -0.3828
     29  H30       -0.7480   33.3090   56.2140 H       0  <0>0        0.2104
@<TRIPOS>BOND
     1    26    24    1
     2    25    24   ar
     3    25    27   ar
     4    24    23   ar
     5    27    21   ar
     6    23    22   ar
     7    21    22   ar
     8    21    20    1
     9    20    19    1
    10    19    18    1
    11    18    28    1
    12    18    17    1
    13    28    29    1
    14    17     1    1
    15     5     6    1
    16     5     4    1
    17     5     7    1
    18     4     3    1
    19     1     2    1
    20     1     3    1
    21     1     8    1
    22    16    15    1
    23    15    10    1
    24     8     9    1
    25    10     9   ar
    26    10    11   ar
    27     9    14   ar
    28    11    12   ar
    29    14    13   ar
    30    12    13   ar
