@<TRIPOS>MOLECULE
ZINC44562125_replica-1.pdb
 22 23 0 0 0
SMALL
GASTEIGER

@<TRIPOS>ATOM
      1  C1        -1.5730   29.6080   57.2910 C.3     0  <0>0       -0.0189
      2  C2        -0.2150   29.0320   56.8860 C.3     0  <0>0       -0.0385
      3  C3        -0.3240   28.4040   55.5200 C.ar    0  <0>0       -0.0421
      4  C8        -1.0710   29.0200   54.5330 C.ar    0  <0>0       -0.0066
      5  C7        -1.1670   28.4460   53.2800 C.ar    0  <0>0       -0.0047
      6  C6        -0.5250   27.2510   53.0150 C.ar    0  <0>0       -0.0225
      7  C5         0.2170   26.6320   54.0040 C.ar    0  <0>0       -0.0047
      8  C4         0.3170   27.2080   55.2570 C.ar    0  <0>0       -0.0066
      9  C9        -0.6330   26.6230   51.6490 C.3     0  <0>0        0.0224
     10  C10       -0.7710   25.1060   51.7950 C.3     0  <0>0        0.0047
     11  C11       -1.8620   27.1800   50.9280 C.3     0  <0>0        0.0047
     12  N1         0.7850   30.1070   56.8520 N.4     0  <0>0        0.3885
     13  H17        1.6220   29.7750   56.3980 H       0  <0>0       -0.0839
     14  H31        0.4150   30.8940   56.3410 H       0  <0>0       -0.0839
     15  C12        1.1050   30.5210   58.2250 C.3     0  <0>0       -0.0648
     16  C13        1.3780   32.0260   58.2530 C.3     0  <0>0        0.0363
     17  N2         1.7270   32.4350   59.6190 N.3     0  <0>0       -0.2749
     18  C17        2.0370   33.8690   59.6810 C.3     0  <0>0        0.0720
     19  C18        2.8410   31.6320   60.1420 C.3     0  <0>0        0.0895
     20  C16        0.8050   34.6770   59.2680 C.3     0  <0>0        0.0174
     21  C15        0.3980   34.2860   57.8460 C.3     0  <0>0        0.0027
     22  C14        0.1260   32.7800   57.7970 C.3     0  <0>0        0.0139
@<TRIPOS>BOND
     1    11     9    1
     2     9    10    1
     3     9     6    1
     4     6     5   ar
     5     6     7   ar
     6     5     4   ar
     7     7     8   ar
     8     4     3   ar
     9     8     3   ar
    10     3     2    1
    11    14    12    1
    12    13    12    1
    13    12     2    1
    14    12    15    1
    15     2     1    1
    16    22    21    1
    17    22    16    1
    18    21    20    1
    19    15    16    1
    20    16    17    1
    21    20    18    1
    22    17    18    1
    23    17    19    1
