@<TRIPOS>MOLECULE
ZINC27581490_replica-1.pdb
 30 32 0 0 0
SMALL
GASTEIGER

@<TRIPOS>ATOM
      1  C11        0.4710   31.5200   55.6150 C.2     0  <0>0        0.2670
      2  O2        -0.6850   31.8300   55.8120 O.2     0  <0>0       -0.2711
      3  N1         0.7600   30.4480   54.8520 N.am    0  <0>0       -0.3031
      4  H15        1.8090   30.1670   54.6730 H       0  <0>0        0.1495
      5  C12       -0.3210   29.6560   54.2620 C.3     0  <0>0        0.0730
      6  C13       -0.1170   28.1780   54.6050 C.3     0  <0>0       -0.0139
      7  C14       -0.4860   27.3310   53.4150 C.ar    0  <0>0       -0.0293
      8  C19       -0.1170   25.9990   53.3740 C.ar    0  <0>0        0.0518
      9  C18       -0.4610   25.2190   52.2840 C.ar    0  <0>0        0.0110
     10 Cl          0.7730   25.3030   54.6920 Cl      0  <0>0       -0.0826
     11  C17       -1.1650   25.7750   51.2320 C.ar    0  <0>0        0.0008
     12  C16       -1.5290   27.1080   51.2710 C.ar    0  <0>0       -0.0003
     13  C15       -1.1900   27.8860   52.3630 C.ar    0  <0>0       -0.0054
     14  N2        -0.9700   27.8180   55.7460 N.4     0  <0>0        0.3919
     15  C23       -0.2530   28.0220   57.0310 C.3     0  <0>0       -0.0768
     16  C22       -1.3740   28.1370   58.0870 C.3     0  <0>0       -0.0249
     17  C21       -2.6230   28.5960   57.3000 C.3     0  <0>0       -0.0249
     18  C20       -2.1470   28.7190   55.8360 C.3     0  <0>0       -0.0768
     19  H30       -1.2500   26.7670   55.5780 H       0  <0>0       -0.0791
     20  C10        1.5830   32.3360   56.2230 C.3     0  <0>0        0.2893
     21  O1         2.1960   31.5940   57.2800 O.3     0  <0>0       -0.4656
     22  C7         1.7700   31.8550   58.5440 C.ar    0  <0>0        0.1393
     23  C6         2.1810   33.0110   59.1910 C.ar    0  <0>0        0.0366
     24  C5         1.7480   33.2740   60.4750 C.ar    0  <0>0       -0.0012
     25  C4         0.9030   32.3870   61.1160 C.ar    0  <0>0       -0.0223
     26  C9         0.4920   31.2330   60.4740 C.ar    0  <0>0       -0.0012
     27  C8         0.9190   30.9690   59.1880 C.ar    0  <0>0        0.0366
     28  C2         0.4310   32.6760   62.5180 C.3     0  <0>0        0.0224
     29  C1        -0.4650   33.9160   62.5090 C.3     0  <0>0        0.0047
     30  C3        -0.3600   31.4780   63.0470 C.3     0  <0>0        0.0047
@<TRIPOS>BOND
     1    11    12   ar
     2    11     9   ar
     3    12    13   ar
     4     9     8   ar
     5    13     7   ar
     6     8     7   ar
     7     8    10    1
     8     7     6    1
     9     5     6    1
    10     5     3    1
    11     6    14    1
    12     4     3    1
    13     3     1   am
    14    19    14    1
    15     1     2    2
    16     1    20    1
    17    14    18    1
    18    14    15    1
    19    18    17    1
    20    20    21    1
    21    15    16    1
    22    21    22    1
    23    17    16    1
    24    22    27   ar
    25    22    23   ar
    26    27    26   ar
    27    23    24   ar
    28    26    25   ar
    29    24    25   ar
    30    25    28    1
    31    29    28    1
    32    28    30    1
