@<TRIPOS>MOLECULE
ZINC10088771_replica-1.pdb
 26 27 0 0 0
SMALL
GASTEIGER

@<TRIPOS>ATOM
      1  O2         6.8460   37.3870   57.7730 O.3     0  <0>0       -0.4397
      2  C2         6.5550   36.4940   56.6950 C.3     0  <0>0        0.2447
      3  C1         7.6050   36.6660   55.5940 C.3     0  <0>0        0.0575
      4  C3         6.5840   35.0740   57.1970 C.2     0  <0>0        0.2664
      5  O1         5.7850   34.7110   58.0350 O.2     0  <0>0       -0.2709
      6  N1         7.4950   34.2070   56.7150 N.am    0  <0>0       -0.2810
      7  H5         8.0900   34.4770   55.9980 H       0  <0>0        0.1550
      8  C4         7.5850   32.9160   57.2490 C.ar    0  <0>0        0.0504
      9  C9         6.8220   31.8870   56.7130 C.ar    0  <0>0        0.0147
     10  C8         6.9160   30.6130   57.2390 C.ar    0  <0>0        0.0013
     11  C7         7.7610   30.3650   58.3050 C.ar    0  <0>0        0.0001
     12  C6         8.5190   31.3890   58.8440 C.ar    0  <0>0        0.0013
     13  C5         8.4330   32.6640   58.3190 C.ar    0  <0>0        0.0147
     14  C10        8.1350   37.7510   57.9360 C.2     0  <0>0        0.3418
     15  O3         8.5410   38.7860   57.4420 O.2     0  <0>0       -0.2449
     16  C11        9.0430   36.9020   58.7040 C.2     0  <0>0        0.0819
     17  C12        9.2770   37.1670   60.0050 C.2     0  <0>0        0.0066
     18  C13       10.1920   36.3120   60.7790 C.ar    0  <0>0        0.0002
     19  C18       10.4680   35.0100   60.3500 C.ar    0  <0>0       -0.0003
     20  C17       11.3310   34.2180   61.0780 C.ar    0  <0>0       -0.0043
     21  C16       11.9150   34.7040   62.2350 C.ar    0  <0>0       -0.0225
     22  C15       11.6410   35.9890   62.6680 C.ar    0  <0>0       -0.0043
     23  C14       10.7850   36.7960   61.9490 C.ar    0  <0>0       -0.0003
     24  C19       12.8530   33.8290   63.0260 C.3     0  <0>0        0.0224
     25  C20       12.3280   32.3920   63.0290 C.3     0  <0>0        0.0047
     26  C21       14.2420   33.8630   62.3880 C.3     0  <0>0        0.0047
@<TRIPOS>BOND
     1     3     2    1
     2     7     6    1
     3     2     4    1
     4     2     1    1
     5     9    10   ar
     6     9     8   ar
     7     6     4   am
     8     6     8    1
     9     4     5    2
    10    10    11   ar
    11     8    13   ar
    12    15    14    2
    13     1    14    1
    14    14    16    1
    15    11    12   ar
    16    13    12   ar
    17    16    17    2
    18    17    18    1
    19    19    18   ar
    20    19    20   ar
    21    18    23   ar
    22    20    21   ar
    23    23    22   ar
    24    21    22   ar
    25    21    24    1
    26    26    24    1
    27    24    25    1
