@<TRIPOS>MOLECULE
ZINC11799759_replica-1.pdb
 20 21 0 0 0
SMALL
GASTEIGER

@<TRIPOS>ATOM
      1  C8        11.4710   35.2860   62.2810 C.3     0  <0>0        0.0915
      2  C5        10.6390   35.6440   61.0770 C.ar    0  <0>0       -0.0146
      3  C4        10.5410   34.7610   60.0180 C.ar    0  <0>0       -0.0007
      4  C3         9.7780   35.0870   58.9140 C.ar    0  <0>0        0.0366
      5  C2         9.1110   36.3020   58.8670 C.ar    0  <0>0        0.1387
      6  C7         9.2120   37.1880   59.9310 C.ar    0  <0>0        0.0366
      7  C6         9.9700   36.8550   61.0350 C.ar    0  <0>0       -0.0007
      8  O1         8.3600   36.6250   57.7810 O.3     0  <0>0       -0.4714
      9  C1         8.3140   35.6720   56.7170 C.3     0  <0>0        0.2525
     10  C9        12.6860   34.4680   61.8370 C.3     0  <0>0        0.0416
     11  C10       12.7360   33.1800   62.6170 C.ar    0  <0>0        0.0125
     12  C15       13.9160   32.7880   63.2330 C.ar    0  <0>0        0.1347
     13  C14       13.9580   31.6040   63.9550 C.ar    0  <0>0        0.0366
     14  C13       12.8290   30.8160   64.0540 C.ar    0  <0>0        0.0031
     15  C12       11.6570   31.2060   63.4340 C.ar    0  <0>0       -0.0001
     16  C11       11.6110   32.3850   62.7140 C.ar    0  <0>0       -0.0013
     17  O2        15.0260   33.5650   63.1340 O.3     0  <0>0       -0.4717
     18  C16       15.6350   33.9850   64.3570 C.3     0  <0>0        0.2525
     19  C17       11.9370   36.5470   62.9630 C.2     0  <0>0        0.2117
     20  O3        11.7550   36.6960   64.1470 O.2     0  <0>0       -0.2879
@<TRIPOS>BOND
     1     9     8    1
     2     8     5    1
     3     5     4   ar
     4     5     6   ar
     5     4     3   ar
     6     6     7   ar
     7     3     2   ar
     8     7     2   ar
     9     2     1    1
    10    10     1    1
    11    10    11    1
    12     1    19    1
    13    11    16   ar
    14    11    12   ar
    15    16    15   ar
    16    19    20    2
    17    17    12    1
    18    17    18    1
    19    12    13   ar
    20    15    14   ar
    21    13    14   ar
