@<TRIPOS>MOLECULE
ZINC38070099_replica-1.pdb
 22 23 0 0 0
SMALL
GASTEIGER

@<TRIPOS>ATOM
      1  C5         8.9880   35.7930   58.3660 C.ar    0  <0>0       -0.0437
      2  C6         8.7300   37.0800   58.8000 C.ar    0  <0>0       -0.0063
      3  C7         9.2080   37.5110   60.0250 C.ar    0  <0>0       -0.0004
      4  C8         9.9450   36.6560   60.8210 C.ar    0  <0>0       -0.0000
      5  C9        10.2070   35.3580   60.3870 C.ar    0  <0>0       -0.0004
      6  C10        9.7190   34.9280   59.1550 C.ar    0  <0>0       -0.0063
      7  C11       10.9990   34.4350   61.2370 C.ar    0  <0>0        0.0001
      8  C16       12.2800   34.7960   61.6540 C.ar    0  <0>0        0.0013
      9  C15       13.0120   33.9380   62.4480 C.ar    0  <0>0        0.0145
     10  C14       12.4780   32.7110   62.8230 C.ar    0  <0>0        0.0479
     11  C13       11.2040   32.3470   62.4040 C.ar    0  <0>0        0.0145
     12  C12       10.4660   33.2030   61.6150 C.ar    0  <0>0        0.0013
     13  N2        13.2230   31.8430   63.6230 N.pl3   0  <0>0       -0.3041
     14  C17       14.5680   32.2230   64.0610 C.3     0  <0>0        0.1122
     15  C18       12.6600   30.5500   64.0240 C.3     0  <0>0        0.1122
     16  C4         8.4650   35.3320   57.0300 C.3     0  <0>0       -0.0542
     17  N1         8.7890   36.3330   56.0050 N.4     0  <0>0        0.3878
     18  H8         9.5130   35.9730   55.4000 H       0  <0>0       -0.0839
     19  H25        9.1120   37.1780   56.4510 H       0  <0>0       -0.0839
     20  C2         7.5880   36.6270   55.2110 C.3     0  <0>0       -0.0616
     21  C1         6.5330   35.5490   55.4650 C.3     0  <0>0       -0.0234
     22  C3         7.0300   37.9930   55.6160 C.3     0  <0>0       -0.0234
@<TRIPOS>BOND
     1    20    21    1
     2    20    22    1
     3    20    17    1
     4    18    17    1
     5    17    19    1
     6    17    16    1
     7    16     1    1
     8     1     2   ar
     9     1     6   ar
    10     2     3   ar
    11     6     5   ar
    12     3     4   ar
    13     5     4   ar
    14     5     7    1
    15     7    12   ar
    16     7     8   ar
    17    12    11   ar
    18     8     9   ar
    19    11    10   ar
    20     9    10   ar
    21    10    13    1
    22    13    15    1
    23    13    14    1
