@<TRIPOS>MOLECULE
ZINC35316383_replica-1.pdb
 25 28 0 0 0
SMALL
GASTEIGER

@<TRIPOS>ATOM
      1  C8         8.1860   36.9150   58.8190 C.3     0  <0>0        0.0624
      2  C9         8.5360   36.5540   57.3690 C.3     0  <0>0        0.0947
      3  C10        7.3350   36.7000   56.4780 C.2     0  <0>0        0.2268
      4  O2         7.4930   37.1390   55.3590 O.2     0  <0>0       -0.2748
      5  N1         6.0900   36.3650   56.8680 N.am    0  <0>0       -0.2825
      6  C11        5.8700   36.0530   58.2350 C.ar    0  <0>0        0.0725
      7  C12        6.8580   36.3090   59.1460 C.ar    0  <0>0        0.0443
      8  S1         6.2300   35.8070   60.6000 S.2     0  <0>0        0.0102
      9  N2         4.7150   35.3000   60.0980 N.ar    0  <0>0       -0.2082
     10  C13        4.7120   35.5130   58.7950 C.ar    0  <0>0        0.1027
     11  H11        5.3620   36.3360   56.2290 H       0  <0>0        0.1549
     12  C5         9.2380   36.3640   59.7470 C.ar    0  <0>0       -0.0171
     13  C4         9.8120   35.1340   59.4880 C.ar    0  <0>0       -0.0008
     14  C3        10.7760   34.6270   60.3370 C.ar    0  <0>0        0.0366
     15  C2        11.1680   35.3540   61.4520 C.ar    0  <0>0        0.1387
     16  C7        10.5860   36.5850   61.7150 C.ar    0  <0>0        0.0366
     17  C6         9.6250   37.0900   60.8580 C.ar    0  <0>0       -0.0008
     18  O1        12.1170   34.8570   62.2900 O.3     0  <0>0       -0.4714
     19  C1        12.0580   33.4590   62.5800 C.3     0  <0>0        0.2525
     20  C14        3.5270   35.1960   57.9620 C.ar    0  <0>0        0.0195
     21  C19        2.4530   36.0820   57.9080 C.ar    0  <0>0        0.0016
     22  C18        1.3540   35.7830   57.1270 C.ar    0  <0>0        0.0000
     23  C17        1.3140   34.6010   56.4090 C.ar    0  <0>0        0.0000
     24  C16        2.3750   33.7160   56.4630 C.ar    0  <0>0        0.0000
     25  C15        3.4810   34.0070   57.2350 C.ar    0  <0>0        0.0016
@<TRIPOS>BOND
     1     4     3    2
     2    11     5    1
     3    23    24   ar
     4    23    22   ar
     5    24    25   ar
     6     3     5   am
     7     3     2    1
     8     5     6    1
     9    22    21   ar
    10    25    20   ar
    11     2     1    1
    12    21    20   ar
    13    20    10    1
    14     6    10   ar
    15     6     7   ar
    16    10     9   ar
    17     1     7    1
    18     1    12    1
    19     7     8   ar
    20    13    12   ar
    21    13    14   ar
    22    12    17   ar
    23     9     8   ar
    24    14    15   ar
    25    17    16   ar
    26    15    16   ar
    27    15    18    1
    28    18    19    1
