@<TRIPOS>MOLECULE
ZINC37857067_replica-1.pdb
 23 24 0 0 0
SMALL
GASTEIGER

@<TRIPOS>ATOM
      1  C9        -0.4070   30.7040   54.6180 C.3     0  <0>0        0.1735
      2  C8        -1.4140   29.5940   54.3140 C.3     0  <0>0        0.2361
      3  O1        -1.3580   29.2670   52.9240 O.3     0  <0>0       -0.4728
      4  C5        -1.1280   27.9660   52.6050 C.ar    0  <0>0        0.1387
      5  C4        -0.3510   27.1750   53.4380 C.ar    0  <0>0        0.0366
      6  C3        -0.1170   25.8530   53.1120 C.ar    0  <0>0       -0.0011
      7  C2        -0.6580   25.3180   51.9570 C.ar    0  <0>0       -0.0217
      8  C1        -0.4020   23.8760   51.6040 C.3     0  <0>0        0.0310
      9  C7        -1.4270   26.1080   51.1220 C.ar    0  <0>0       -0.0011
     10  C6        -1.6680   27.4290   51.4470 C.ar    0  <0>0        0.0366
     11  C10       -0.8880   31.5140   55.8230 C.3     0  <0>0        0.1206
     12  N1        -0.1070   32.7490   55.9270 N.pl3   0  <0>0       -0.3306
     13  H13        0.0150   33.3120   55.1470 H       0  <0>0        0.1469
     14  C11        0.4620   33.1160   57.1480 C.ar    0  <0>0        0.0464
     15  C16        1.1740   34.3030   57.2560 C.ar    0  <0>0        0.0257
     16  C15        1.7320   34.6660   58.4670 C.ar    0  <0>0        0.0597
     17  C14        1.5910   33.8410   59.5690 C.ar    0  <0>0        0.0229
     18 Cl          2.6150   36.1540   58.6050 Cl      0  <0>0       -0.0822
     19  C13        0.8880   32.6550   59.4640 C.ar    0  <0>0        0.0597
     20  C12        0.3230   32.2900   58.2570 C.ar    0  <0>0        0.0257
     21 Cl          0.7140   31.6230   60.8500 Cl      0  <0>0       -0.0822
     22  O2         0.8670   30.1260   54.9110 O.3     0  <0>0       -0.3791
     23  H17        1.5640   30.3750   54.2890 H       0  <0>0        0.2106
@<TRIPOS>BOND
     1     9    10   ar
     2     9     7   ar
     3    10     4   ar
     4     8     7    1
     5     7     6   ar
     6     4     3    1
     7     4     5   ar
     8     3     2    1
     9     6     5   ar
    10    23    22    1
    11     2     1    1
    12     1    22    1
    13     1    11    1
    14    13    12    1
    15    11    12    1
    16    12    14    1
    17    14    15   ar
    18    14    20   ar
    19    15    16   ar
    20    20    19   ar
    21    16    18    1
    22    16    17   ar
    23    19    17   ar
    24    19    21    1
