@<TRIPOS>MOLECULE
ZINC32903255_replica-1.pdb
 22 22 0 0 0
SMALL
GASTEIGER

@<TRIPOS>ATOM
      1  C8         9.8470   36.3500   60.2060 C.ar    0  <0>0        0.0002
      2  C9         9.2190   37.5990   60.1230 C.ar    0  <0>0        0.0005
      3  C10        8.4860   37.9210   59.0180 C.ar    0  <0>0        0.0064
      4  C11        8.3610   37.0090   57.9730 C.ar    0  <0>0        0.0328
      5  C12        8.9800   35.7630   58.0530 C.ar    0  <0>0        0.0064
      6  C13        9.7200   35.4350   59.1530 C.ar    0  <0>0        0.0005
      7  C7        10.6360   35.9990   61.3940 C.2     0  <0>0        0.0047
      8  C6        11.5170   34.9770   61.3430 C.2     0  <0>0        0.0577
      9  C5        12.3030   34.6280   62.5250 C.2     0  <0>0        0.2460
     10  N1        13.1660   33.5940   62.4810 N.am    0  <0>0       -0.3000
     11  H10       13.2800   33.0120   61.5530 H       0  <0>0        0.1498
     12  O2        12.1760   35.2720   63.5510 O.2     0  <0>0       -0.2701
     13  C2        13.9540   33.2450   63.6650 C.3     0  <0>0        0.1014
     14  C1        13.9870   31.7240   63.8250 C.3     0  <0>0        0.0239
     15  C3        15.3810   33.7720   63.5020 C.3     0  <0>0        0.1617
     16  O1        15.8940   34.1590   64.7790 O.3     0  <0>0       -0.3494
     17  C4        17.2770   34.5180   64.7640 C.3     0  <0>0        0.1742
     18  S1         7.4140   37.4280   56.5470 S.3     0  <0>0       -0.0144
     19  C14        5.9990   36.2950   56.6110 C.3     0  <0>0        0.4477
     20  F1         5.5600   36.1710   57.9330 F       0  <0>0       -0.1600
     21  F2         4.9610   36.8000   55.8210 F       0  <0>0       -0.1600
     22  F3         6.3850   35.0400   56.1280 F       0  <0>0       -0.1600
@<TRIPOS>BOND
     1    21    19    1
     2    22    19    1
     3    18    19    1
     4    18     4    1
     5    19    20    1
     6     4     5   ar
     7     4     3   ar
     8     5     6   ar
     9     3     2   ar
    10     6     1   ar
    11     2     1   ar
    12     1     7    1
    13     8     7    2
    14     8     9    1
    15    11    10    1
    16    10     9   am
    17    10    13    1
    18     9    12    2
    19    15    13    1
    20    15    16    1
    21    13    14    1
    22    17    16    1
