@<TRIPOS>MOLECULE
ZINC32230503_replica-1.pdb
 25 26 0 0 0
SMALL
GASTEIGER

@<TRIPOS>ATOM
      1  C10       -1.7100   30.5670   55.7800 C.3     0  <0>0        0.1735
      2  C9        -2.0200   29.6360   54.6060 C.3     0  <0>0        0.2361
      3  O1        -0.8110   29.3300   53.9080 O.3     0  <0>0       -0.4731
      4  C5        -0.7570   28.1340   53.2650 C.ar    0  <0>0        0.1346
      5  C4        -1.3710   27.9800   52.0300 C.ar    0  <0>0        0.0362
      6  C3        -1.3180   26.7620   51.3810 C.ar    0  <0>0       -0.0012
      7  C2        -0.6440   25.7000   51.9550 C.ar    0  <0>0       -0.0220
      8  C1        -0.5820   24.3740   51.2420 C.3     0  <0>0        0.0310
      9  C7        -0.0300   25.8510   53.1850 C.ar    0  <0>0       -0.0055
     10  C6        -0.0850   27.0660   53.8410 C.ar    0  <0>0        0.0118
     11  C8         0.5830   27.2300   55.1810 C.3     0  <0>0        0.0342
     12  C11       -0.4870   31.4220   55.4440 C.3     0  <0>0        0.1206
     13  N1         0.6060   31.0930   56.3630 N.pl3   0  <0>0       -0.3306
     14  H15        1.4370   30.4580   56.0240 H       0  <0>0        0.1469
     15  C12        0.5910   31.5870   57.6710 C.ar    0  <0>0        0.0447
     16  C17        0.4330   32.9490   57.8980 C.ar    0  <0>0        0.0140
     17  C16        0.4180   33.4330   59.1900 C.ar    0  <0>0       -0.0030
     18  C15        0.5610   32.5660   60.2580 C.ar    0  <0>0       -0.0224
     19  C14        0.7180   31.2100   60.0350 C.ar    0  <0>0       -0.0030
     20  C13        0.7280   30.7180   58.7450 C.ar    0  <0>0        0.0140
     21  C18        0.5450   33.1000   61.6670 C.3     0  <0>0        0.0224
     22  C19       -0.3690   34.3250   61.7380 C.3     0  <0>0        0.0047
     23  C20        0.0230   32.0190   62.6160 C.3     0  <0>0        0.0047
     24  O2        -2.8340   31.4160   56.0230 O.3     0  <0>0       -0.3791
     25  H27       -2.6960   32.3760   56.5430 H       0  <0>0        0.2106
@<TRIPOS>BOND
     1     8     7    1
     2     6     7   ar
     3     6     5   ar
     4     7     9   ar
     5     5     4   ar
     6     9    10   ar
     7     4    10   ar
     8     4     3    1
     9    10    11    1
    10     3     2    1
    11     2     1    1
    12    12     1    1
    13    12    13    1
    14     1    24    1
    15    24    25    1
    16    14    13    1
    17    13    15    1
    18    15    16   ar
    19    15    20   ar
    20    16    17   ar
    21    20    19   ar
    22    17    18   ar
    23    19    18   ar
    24    18    21    1
    25    21    22    1
    26    21    23    1
