@<TRIPOS>MOLECULE
ZINC36614749_replica-1.pdb
 36 39 0 0 0
SMALL
GASTEIGER

@<TRIPOS>ATOM
      1  C9         5.4120   34.2110   57.8320 C.3     0  <0>0        0.1004
      2  C10        4.1700   34.7000   58.5850 C.3     0  <0>0        0.0471
      3  C11        3.0880   35.0830   57.5710 C.3     0  <0>0        0.0043
      4  C12        1.8390   35.5620   58.3120 C.3     0  <0>0        0.0002
      5  C13        1.3180   34.4380   59.2100 C.3     0  <0>0        0.0024
      6  C14        2.3970   34.0580   60.2250 C.3     0  <0>0        0.0270
      7  C15        3.6540   33.5820   59.4930 C.3     0  <0>0        0.0918
      8  C16        4.7320   33.2180   60.5170 C.3     0  <0>0        0.0485
      9  C17        5.9770   32.7100   59.7860 C.3     0  <0>0        0.0964
     10  N1         6.3940   33.7160   58.8060 N.am    0  <0>0       -0.2738
     11  C18        7.6570   34.1860   58.8050 C.2     0  <0>0        0.2493
     12  O3         7.9710   35.0930   58.0580 O.2     0  <0>0       -0.2699
     13  C5         6.0090   35.3500   57.0470 C.ar    0  <0>0       -0.0010
     14  C4         6.3510   36.5250   57.6870 C.ar    0  <0>0        0.0374
     15  C3         6.9000   37.5740   56.9660 C.ar    0  <0>0        0.1717
     16  C8         7.1010   37.4410   55.5960 C.ar    0  <0>0        0.1677
     17  C7         6.7610   36.2570   54.9600 C.ar    0  <0>0        0.0395
     18  C6         6.2130   35.2160   55.6860 C.ar    0  <0>0        0.0006
     19  O1         7.2370   38.7310   57.5960 O.3     0  <0>0       -0.4724
     20  C2         7.3520   38.6860   59.0190 C.3     0  <0>0        0.2057
     21  C1         8.7670   38.2480   59.4020 C.3     0  <0>0        0.0512
     22  O2         7.6340   38.4690   54.8820 O.3     0  <0>0       -0.5029
     23  H11        7.3980   38.4590   53.9440 H       0  <0>0        0.2923
     24  C19        8.6550   33.6040   59.7070 C.2     0  <0>0        0.0580
     25  C20        9.5090   34.4060   60.3740 C.2     0  <0>0        0.0047
     26  C21       10.5120   33.8220   61.2800 C.ar    0  <0>0        0.0001
     27  C26       11.7080   34.4990   61.5360 C.ar    0  <0>0       -0.0003
     28  C25       12.6390   33.9480   62.3910 C.ar    0  <0>0       -0.0043
     29  C24       12.3980   32.7210   62.9850 C.ar    0  <0>0       -0.0225
     30  C23       11.2190   32.0420   62.7320 C.ar    0  <0>0       -0.0043
     31  C22       10.2750   32.5830   61.8850 C.ar    0  <0>0       -0.0003
     32  C27       13.4230   32.1240   63.9130 C.3     0  <0>0        0.0224
     33  C28       13.3110   30.5980   63.8830 C.3     0  <0>0        0.0047
     34  C29       14.8240   32.5410   63.4620 C.3     0  <0>0        0.0047
     35  O4         3.3350   32.4360   58.7050 O.3     0  <0>0       -0.3866
     36  H37        3.8190   32.3840   57.8690 H       0  <0>0        0.2102
@<TRIPOS>BOND
     1    23    22    1
     2    22    16    1
     3    17    16   ar
     4    17    18   ar
     5    16    15   ar
     6    18    13   ar
     7    15    19    1
     8    15    14   ar
     9    13    14   ar
    10    13     1    1
    11     3     4    1
    12     3     2    1
    13    19    20    1
    14     1     2    1
    15     1    10    1
    16    36    35    1
    17    12    11    2
    18     4     5    1
    19     2     7    1
    20    35     7    1
    21    11    10   am
    22    11    24    1
    23    10     9    1
    24    20    21    1
    25     5     6    1
    26     7     6    1
    27     7     8    1
    28    24    25    2
    29     9     8    1
    30    25    26    1
    31    26    27   ar
    32    26    31   ar
    33    27    28   ar
    34    31    30   ar
    35    28    29   ar
    36    30    29   ar
    37    29    32    1
    38    34    32    1
    39    33    32    1
