@<TRIPOS>MOLECULE
ZINC04065871_replica-1.pdb
 28 31 0 0 0
SMALL
GASTEIGER

@<TRIPOS>ATOM
      1  C10        8.8750   34.8400   58.9550 C.2     0  <0>0        0.1924
      2  N1         9.2290   36.0910   58.7670 N.2     0  <0>0       -0.3898
      3  C11        8.5570   36.8950   57.9220 C.2     0  <0>0        0.1231
      4  C12        8.9370   38.2270   57.7240 C.2     0  <0>0        0.0284
      5  C13        8.2310   39.0130   56.8580 C.2     0  <0>0        0.0020
      6  C14        7.1370   38.5100   56.1650 C.2     0  <0>0       -0.0036
      7  C15        6.7390   37.2030   56.3380 C.2     0  <0>0       -0.0103
      8  C16        7.4430   36.3830   57.2170 C.3     0  <0>0        0.1514
      9  C17        7.0630   34.9800   57.4410 C.2     0  <0>0        0.2453
     10  O2         6.1130   34.4840   56.8630 O.2     0  <0>0       -0.2733
     11  N2         7.8110   34.2600   58.3090 N.am    0  <0>0       -0.2117
     12  C9         9.6540   34.0260   59.8900 C.2     0  <0>0        0.0484
     13  C8        10.5760   34.6070   60.6830 C.2     0  <0>0        0.0040
     14  C5        11.3580   33.7900   61.6220 C.ar    0  <0>0        0.0003
     15  C4        10.8190   32.6070   62.1410 C.ar    0  <0>0        0.0031
     16  C3        11.5560   31.8450   63.0200 C.ar    0  <0>0        0.0369
     17  C2        12.8330   32.2480   63.3930 C.ar    0  <0>0        0.1387
     18  C7        13.3720   33.4220   62.8800 C.ar    0  <0>0        0.0369
     19  C6        12.6460   34.1880   61.9960 C.ar    0  <0>0        0.0031
     20  O1        13.5550   31.4940   64.2610 O.3     0  <0>0       -0.4714
     21  C1        12.9520   30.2830   64.7220 C.3     0  <0>0        0.2525
     22  C18        7.4950   32.9180   58.5530 C.ar    0  <0>0        0.0604
     23  C23        8.1000   31.9140   57.8080 C.ar    0  <0>0        0.0158
     24  C22        7.7860   30.5910   58.0510 C.ar    0  <0>0        0.0080
     25  C21        6.8700   30.2650   59.0360 C.ar    0  <0>0        0.0346
     26  C20        6.2670   31.2640   59.7800 C.ar    0  <0>0        0.0080
     27 Br          6.4440   28.4530   59.3660 Br      0  <0>0       -0.0490
     28  C19        6.5810   32.5870   59.5450 C.ar    0  <0>0        0.0158
@<TRIPOS>BOND
     1     6     7    2
     2     6     5    1
     3     7     8    1
     4     5     4    2
     5    10     9    2
     6     8     9    1
     7     8     3    1
     8     9    11   am
     9     4     3    1
    10    23    24   ar
    11    23    22   ar
    12     3     2    2
    13    24    25   ar
    14    11    22    1
    15    11     1    1
    16    22    28   ar
    17     2     1    2
    18     1    12    1
    19    25    27    1
    20    25    26   ar
    21    28    26   ar
    22    12    13    2
    23    13    14    1
    24    14    19   ar
    25    14    15   ar
    26    19    18   ar
    27    15    16   ar
    28    18    17   ar
    29    16    17   ar
    30    17    20    1
    31    20    21    1
