@<TRIPOS>MOLECULE
ZINC36954576_replica-1.pdb
 22 24 0 0 0
SMALL
GASTEIGER

@<TRIPOS>ATOM
      1  C1        10.1940   36.7940   61.3840 C.ar    0  <0>0        0.0122
      2  C2         9.3290   37.2620   60.4200 C.ar    0  <0>0        0.0124
      3  C3         9.0560   36.4860   59.2910 C.ar    0  <0>0        0.0816
      4  C4         9.6660   35.2290   59.1500 C.ar    0  <0>0        0.0554
      5  C5        10.5340   34.7720   60.1310 C.ar    0  <0>0        0.0264
      6  C6        10.7950   35.5520   61.2420 C.ar    0  <0>0        0.0589
      7 Cl         11.8820   34.9740   62.4650 Cl      0  <0>0       -0.0822
      8  C15        8.1580   36.9670   58.2850 C.1     0  <0>0        0.1017
      9  N2         7.4450   37.3500   57.4870 N.1     0  <0>0       -0.1908
     10  N1         9.4010   34.4460   58.0320 N.pl3   0  <0>0       -0.3285
     11  H4         9.7960   34.6730   57.1750 H       0  <0>0        0.1471
     12  C7         8.5270   33.2750   58.1470 C.3     0  <0>0        0.1149
     13  C8         7.1860   33.5880   57.5340 C.ar    0  <0>0        0.0068
     14  C13        6.1070   33.8780   58.3490 C.ar    0  <0>0        0.0354
     15  C12        4.8750   34.1710   57.7910 C.ar    0  <0>0        0.0466
     16 Br          6.3180   33.8840   60.2280 Br      0  <0>0       -0.0492
     17  C11        4.7180   34.1620   56.4160 C.ar    0  <0>0        0.1769
     18  C10        5.8030   33.8630   55.5960 C.ar    0  <0>0        0.1762
     19  O1         3.6300   34.4060   55.6270 O.3     0  <0>0       -0.4346
     20  C9         7.0350   33.5770   56.1600 C.ar    0  <0>0        0.0381
     21  O2         5.3960   33.9200   54.2940 O.3     0  <0>0       -0.4346
     22  C14        4.1570   34.6530   54.3100 C.3     0  <0>0        0.4294
@<TRIPOS>BOND
     1    21    22    1
     2    21    18    1
     3    22    19    1
     4    18    20   ar
     5    18    17   ar
     6    19    17    1
     7    20    13   ar
     8    17    15   ar
     9    11    10    1
    10     9     8    3
    11    13    12    1
    12    13    14   ar
    13    15    14   ar
    14    10    12    1
    15    10     4    1
    16     8     3    1
    17    14    16    1
    18     4     3   ar
    19     4     5   ar
    20     3     2   ar
    21     5     6   ar
    22     2     1   ar
    23     6     1   ar
    24     6     7    1
