@<TRIPOS>MOLECULE
ZINC52341176_replica-1.pdb
 23 24 0 0 0
SMALL
GASTEIGER

@<TRIPOS>ATOM
      1  C10       -0.1310   29.4510   55.8240 C.ar    0  <0>0        0.0447
      2  C11       -0.1150   30.5620   54.9890 C.ar    0  <0>0        0.0157
      3  C12        0.2690   31.7910   55.4860 C.ar    0  <0>0        0.0212
      4  C13        0.6370   31.9180   56.8130 C.ar    0  <0>0        0.1220
      5  C14        0.6220   30.8150   57.6470 C.ar    0  <0>0        0.0212
      6  C15        0.2340   29.5840   57.1570 C.ar    0  <0>0        0.0157
      7  N1        -0.5200   28.2060   55.3250 N.pl3   0  <0>0       -0.3340
      8  H18       -1.4500   27.9360   55.3640 H       0  <0>0        0.1468
      9  C3         0.4800   27.3070   54.7420 C.3     0  <0>0        0.0690
     10  C2         0.4670   25.9740   55.4930 C.3     0  <0>0        0.0195
     11  C1        -0.2290   26.1570   56.8440 C.3     0  <0>0        0.0017
     12  C4         0.1490   27.0640   53.2680 C.3     0  <0>0        0.0179
     13  C9        -1.0960   27.8660   52.8860 C.3     0  <0>0        0.0016
     14  C8        -1.4280   27.6250   51.4120 C.3     0  <0>0        0.0001
     15  C7        -1.6910   26.1340   51.1870 C.3     0  <0>0        0.0000
     16  C6        -0.4450   25.3320   51.5690 C.3     0  <0>0        0.0001
     17  C5        -0.1150   25.5750   53.0420 C.3     0  <0>0        0.0016
     18  S1         1.1280   33.4890   57.4430 S.O2    0  <0>0        0.0603
     19  O1        -0.0380   34.0910   57.9870 O.2     0  <0>0       -0.1530
     20  O2         2.3030   33.2700   58.2110 O.2     0  <0>0       -0.1530
     21  N2         1.5780   34.4170   56.1460 N.3     0  <0>0       -0.1779
     22  C16        2.8190   35.1940   56.1980 C.3     0  <0>0        0.1102
     23  H23        1.0200   34.4470   55.3540 H       0  <0>0        0.1488
@<TRIPOS>BOND
     1    15    14    1
     2    15    16    1
     3    14    13    1
     4    16    17    1
     5    13    12    1
     6    17    12    1
     7    12     9    1
     8     9     7    1
     9     9    10    1
    10     2     3   ar
    11     2     1   ar
    12     7     8    1
    13     7     1    1
    14    23    21    1
    15     3     4   ar
    16    10    11    1
    17     1     6   ar
    18    21    22    1
    19    21    18    1
    20     4    18    1
    21     4     5   ar
    22     6     5   ar
    23    18    19    2
    24    18    20    2
