@<TRIPOS>MOLECULE
ZINC41978128_replica-1.pdb
 22 22 0 0 0
SMALL
GASTEIGER

@<TRIPOS>ATOM
      1  C4         8.9750   35.9180   58.4340 C.2     0  <0>0        0.0403
      2  C5         8.7830   37.1920   58.8330 C.2     0  <0>0        0.1168
      3  C6         7.8600   38.0010   58.1210 C.1     0  <0>0        0.2080
      4  O1         7.6670   39.1580   58.4620 O.2     0  <0>0       -0.2092
      5  N1         7.2000   37.4880   57.0750 N.2     0  <0>0       -0.3107
      6  C7         7.4010   36.2410   56.6990 C.2     0  <0>0        0.2240
      7  N2         8.2830   35.4420   57.3570 N.pl3   0  <0>0       -0.2850
      8  H1         8.4200   34.5270   57.0620 H       0  <0>0        0.1548
      9  S1         6.5160   35.5990   55.3170 S.3     0  <0>0       -0.0568
     10  C8         4.9930   34.9330   56.0430 C.3     0  <0>0        0.1400
     11  C9         5.3470   33.9050   57.1200 C.3     0  <0>0        0.0227
     12  C10        4.1860   36.0720   56.6710 C.3     0  <0>0        0.0213
     13  C11        3.9700   35.7830   58.1580 C.3     0  <0>0        0.0014
     14  C12        2.4810   35.9130   58.4910 C.3     0  <0>0        0.0000
     15  C13        1.6790   36.0440   57.1950 C.3     0  <0>0        0.0000
     16  C14        2.0200   34.6700   59.2540 C.3     0  <0>0        0.0000
     17  C15        4.1720   34.2710   54.9680 C.2     0  <0>0        0.3733
     18  O2         4.4590   34.4340   53.7940 O.co2   0  <0>0       -0.2448
     19  O3         3.2200   33.5700   55.2700 O.co2   0  <0>0       -0.2448
     20  C3         9.9480   35.0290   59.1660 C.3     0  <0>0        0.0420
     21  C2        10.3820   35.7100   60.4660 C.3     0  <0>0        0.0060
     22  C1        11.3160   34.7780   61.2420 C.3     0  <0>0        0.0004
@<TRIPOS>BOND
     1    18    17   ar
     2    17    19   ar
     3    17    10    1
     4     9    10    1
     5     9     6    1
     6    10    12    1
     7    10    11    1
     8    12    13    1
     9     6     5    2
    10     6     7    1
    11     8     7    1
    12     5     3    2
    13    15    14    1
    14     7     1    1
    15     3     4    2
    16     3     2    1
    17    13    14    1
    18     1     2    2
    19     1    20    1
    20    14    16    1
    21    20    21    1
    22    21    22    1
