@<TRIPOS>MOLECULE
ZINC54714120_replica-1.pdb
 20 20 0 0 0
SMALL
GASTEIGER

@<TRIPOS>ATOM
      1  C5         8.5400   34.7910   59.4590 C.ar    0  <0>0        0.0628
      2  C6         9.2750   35.9620   59.7010 C.ar    0  <0>0        0.0900
      3  C7        10.3680   35.9220   60.5710 C.ar    0  <0>0        0.0144
      4  C8        10.7180   34.7370   61.1820 C.ar    0  <0>0        0.0353
      5  C9         9.9900   33.5830   60.9400 C.ar    0  <0>0        0.0146
      6  C10        8.9030   33.6080   60.0890 C.ar    0  <0>0        0.0487
      7 Br          7.9120   32.0280   59.7750 Br      0  <0>0       -0.0477
      8 Br         12.1980   34.6860   62.3580 Br      0  <0>0       -0.0490
      9  N1         7.4470   34.8170   58.5950 N.am    0  <0>0       -0.2833
     10  C4         6.2260   35.1430   59.0630 C.2     0  <0>0        0.2269
     11  O1         6.0570   35.3150   60.2510 O.2     0  <0>0       -0.2747
     12  H7         7.5650   34.6020   57.6570 H       0  <0>0        0.1549
     13  C2         5.0690   35.2930   58.1080 C.3     0  <0>0        0.0930
     14  C1         3.9020   35.9760   58.8250 C.3     0  <0>0        0.0109
     15  C3         5.5030   36.1460   56.9130 C.3     0  <0>0        0.1039
     16 Cl          4.1270   36.3050   55.7580 Cl      0  <0>0       -0.1132
     17  C11        8.8960   37.2250   59.0430 C.2     0  <0>0        0.3426
     18  O2         8.6950   38.2210   59.7090 O.2     0  <0>0       -0.2448
     19  O3         8.7720   37.2740   57.7020 O.3     0  <0>0       -0.4413
     20  C12        8.5190   38.5550   57.1200 C.3     0  <0>0        0.2560
@<TRIPOS>BOND
     1    16    15    1
     2    15    13    1
     3    20    19    1
     4    12     9    1
     5    19    17    1
     6    13    14    1
     7    13    10    1
     8     9    10   am
     9     9     1    1
    10    17     2    1
    11    17    18    2
    12    10    11    2
    13     1     2   ar
    14     1     6   ar
    15     2     3   ar
    16     7     6    1
    17     6     5   ar
    18     3     4   ar
    19     5     4   ar
    20     4     8    1
