@<TRIPOS>MOLECULE
ZINC49902924_replica-1.pdb
 24 25 0 0 0
SMALL
GASTEIGER

@<TRIPOS>ATOM
      1  C10        7.5620   37.3350   55.6440 C.3     0  <0>0        0.1521
      2  C7         8.1830   37.2010   57.0100 C.ar    0  <0>0        0.0059
      3  C6         8.2270   38.2910   57.8600 C.ar    0  <0>0       -0.0022
      4  C5         8.7960   38.1680   59.1130 C.ar    0  <0>0       -0.0045
      5  C4         9.3200   36.9550   59.5190 C.ar    0  <0>0       -0.0225
      6  C9         9.2810   35.8660   58.6680 C.ar    0  <0>0       -0.0045
      7  C8         8.7090   35.9870   57.4150 C.ar    0  <0>0       -0.0022
      8  C2         9.9400   36.8210   60.8860 C.3     0  <0>0        0.0224
      9  C1         8.8550   36.9770   61.9540 C.3     0  <0>0        0.0047
     10  C3        10.5920   35.4440   61.0180 C.3     0  <0>0        0.0047
     11  C11        6.0380   37.2970   55.7700 C.3     0  <0>0        0.1213
     12  N1         5.6300   36.0360   56.3960 N.pl3   0  <0>0       -0.3307
     13  H15        6.2250   35.2700   56.3740 H       0  <0>0        0.1469
     14  C12        4.3860   35.9380   57.0240 C.ar    0  <0>0        0.0406
     15  C17        4.3070   35.8880   58.4090 C.ar    0  <0>0       -0.0094
     16  C16        3.0750   35.7980   59.0270 C.ar    0  <0>0       -0.0031
     17  C15        1.9210   35.7450   58.2650 C.ar    0  <0>0       -0.0002
     18  C14        1.9960   35.7900   56.8850 C.ar    0  <0>0        0.0012
     19  C13        3.2250   35.8860   56.2620 C.ar    0  <0>0        0.0140
     20  C18        5.5650   35.9390   59.2380 C.3     0  <0>0        0.0236
     21  C19        5.5510   37.1960   60.1090 C.3     0  <0>0        0.0047
     22  C20        5.6360   34.6990   60.1330 C.3     0  <0>0        0.0047
     23  O1         7.9990   36.2550   54.8150 O.3     0  <0>0       -0.3783
     24  H27        8.5980   35.6380   55.2560 H       0  <0>0        0.2109
@<TRIPOS>BOND
     1    23    24    1
     2    23     1    1
     3     1    11    1
     4     1     2    1
     5    11    12    1
     6    19    18   ar
     7    19    14   ar
     8    13    12    1
     9    12    14    1
    10    18    17   ar
    11     2     7   ar
    12     2     3   ar
    13    14    15   ar
    14     7     6   ar
    15     3     4   ar
    16    17    16   ar
    17    15    16   ar
    18    15    20    1
    19     6     5   ar
    20     4     5   ar
    21    20    21    1
    22    20    22    1
    23     5     8    1
    24     8    10    1
    25     8     9    1
