@<TRIPOS>MOLECULE
ZINC36953366_replica-1.pdb
 21 22 0 0 0
SMALL
GASTEIGER

@<TRIPOS>ATOM
      1  N1        11.5200   34.4050   60.9370 N.pl3   0  <0>0       -0.3289
      2  H14       12.0150   33.7580   60.4110 H       0  <0>0        0.1471
      3  C8        10.5790   35.2320   60.3200 C.ar    0  <0>0        0.0448
      4  C7        10.2440   36.4540   60.8910 C.ar    0  <0>0        0.0140
      5  C6         9.3140   37.2690   60.2770 C.ar    0  <0>0       -0.0030
      6  C5         8.7140   36.8710   59.0970 C.ar    0  <0>0       -0.0224
      7  C10        9.0400   35.6520   58.5290 C.ar    0  <0>0       -0.0030
      8  C9         9.9740   34.8340   59.1330 C.ar    0  <0>0        0.0140
      9  C3         7.6980   37.7630   58.4300 C.3     0  <0>0        0.0223
     10  C4         8.4210   38.8400   57.6190 C.3     0  <0>0        0.0047
     11  C2         6.8250   38.4270   59.4960 C.3     0  <0>0        0.0044
     12  C1         5.8210   37.4080   60.0390 C.3     0  <0>0        0.0003
     13  C11       11.7600   34.5160   62.3780 C.3     0  <0>0        0.1188
     14  C12       12.2960   33.2080   62.9000 C.ar    0  <0>0        0.0523
     15  C17       13.6330   33.0950   63.2430 C.ar    0  <0>0        0.1399
     16  C16       14.1230   31.8950   63.7280 C.ar    0  <0>0        0.0295
     17  F1        14.4560   34.1570   63.1100 F       0  <0>0       -0.2044
     18  C15       13.2820   30.8060   63.8590 C.ar    0  <0>0        0.0046
     19  C14       11.9490   30.9150   63.5110 C.ar    0  <0>0        0.0295
     20  C13       11.4550   32.1170   63.0310 C.ar    0  <0>0        0.1399
     21  F2        10.1510   32.2240   62.6910 F       0  <0>0       -0.2044
@<TRIPOS>BOND
     1    10     9    1
     2     9     6    1
     3     9    11    1
     4     7     6   ar
     5     7     8   ar
     6     6     5   ar
     7     8     3   ar
     8    11    12    1
     9     5     4   ar
    10     3     4   ar
    11     3     1    1
    12     2     1    1
    13     1    13    1
    14    13    14    1
    15    21    20    1
    16    14    20   ar
    17    14    15   ar
    18    20    19   ar
    19    17    15    1
    20    15    16   ar
    21    19    18   ar
    22    16    18   ar
