@<TRIPOS>MOLECULE
ZINC04881085_replica-1.pdb
 25 25 0 0 0
SMALL
GASTEIGER

@<TRIPOS>ATOM
      1  C11        8.1470   34.0940   58.8670 C.2     0  <0>0        0.2645
      2  O1         7.0130   34.4040   59.1780 O.2     0  <0>0       -0.2684
      3  N2         8.4840   33.9890   57.5660 N.am    0  <0>0       -0.2030
      4  H15        9.3880   33.7420   57.3170 H       0  <0>0        0.1776
      5  C8         9.1540   33.8350   59.9120 C.ar    0  <0>0        0.0551
      6  C7        10.1420   34.7850   60.1850 C.ar    0  <0>0        0.0058
      7  C6        11.0790   34.5400   61.1620 C.ar    0  <0>0        0.0147
      8  C5        11.0450   33.3470   61.8770 C.ar    0  <0>0        0.0478
      9  C10       10.0630   32.3970   61.6080 C.ar    0  <0>0        0.0147
     10  C9         9.1220   32.6360   60.6330 C.ar    0  <0>0        0.0058
     11  N1        11.9950   33.1010   62.8630 N.pl3   0  <0>0       -0.3075
     12  C2        11.9980   31.8200   63.5750 C.3     0  <0>0        0.0908
     13  C1        13.4290   31.2830   63.6490 C.3     0  <0>0        0.0232
     14  C3        12.9910   34.1230   63.1910 C.3     0  <0>0        0.0908
     15  C4        14.1370   34.0620   62.1790 C.3     0  <0>0        0.0232
     16  N3         7.5270   34.2360   56.5720 N.2     0  <0>0       -0.1877
     17  C12        7.4830   35.3770   55.9950 C.2     0  <0>0        0.0540
     18  C13        6.4540   35.6420   54.9260 C.3     0  <0>0        0.0429
     19  C14        5.0710   35.2420   55.4410 C.3     0  <0>0        0.0056
     20  C15        4.2050   36.4930   55.6040 C.3     0  <0>0        0.0004
     21  C16        4.4080   34.2930   54.4390 C.3     0  <0>0        0.0004
     22  C17        8.4610   36.4560   56.3840 C.3     0  <0>0        0.0429
     23  C18        7.7450   37.5110   57.2300 C.3     0  <0>0        0.0056
     24  C19        8.5460   37.7700   58.5080 C.3     0  <0>0        0.0004
     25  C20        7.6270   38.8110   56.4300 C.3     0  <0>0        0.0004
@<TRIPOS>BOND
     1    21    19    1
     2    18    19    1
     3    18    17    1
     4    19    20    1
     5    17    22    1
     6    17    16    2
     7    22    23    1
     8    25    23    1
     9    16     3    1
    10    23    24    1
    11     4     3    1
    12     3     1   am
    13     1     2    2
    14     1     5    1
    15     5     6   ar
    16     5    10   ar
    17     6     7   ar
    18    10     9   ar
    19     7     8   ar
    20     9     8   ar
    21     8    11    1
    22    15    14    1
    23    11    14    1
    24    11    12    1
    25    12    13    1
