@<TRIPOS>MOLECULE
ZINC04072116_replica-1.pdb
 27 30 0 0 0
SMALL
GASTEIGER

@<TRIPOS>ATOM
      1  N3         0.6290   31.7700   55.2260 N.am    0  <0>0       -0.2625
      2  C10       -0.4780   31.0710   55.5460 C.2     0  <0>0        0.2320
      3  O1        -0.9000   31.0910   56.6820 O.2     0  <0>0       -0.2744
      4  H8         0.9660   31.7540   54.3170 H       0  <0>0        0.1568
      5  C9         1.2870   32.5110   56.1990 C.ar    0  <0>0        0.1881
      6  N2         0.9300   33.6440   56.7800 N.ar    0  <0>0       -0.1253
      7  N1         1.6460   34.1990   57.6600 N.ar    0  <0>0       -0.1396
      8  C8         2.8000   33.6560   58.0260 C.ar    0  <0>0        0.1348
      9  S1         2.8110   32.2050   56.9800 S.2     0  <0>0       -0.0304
     10  C6         3.7940   34.1190   59.0170 C.ar    0  <0>0        0.0254
     11  C5         4.2300   33.2610   60.0280 C.ar    0  <0>0        0.0020
     12  C4         5.1590   33.7000   60.9490 C.ar    0  <0>0       -0.0003
     13  C3         5.6600   34.9870   60.8720 C.ar    0  <0>0       -0.0043
     14  C2         5.2330   35.8420   59.8720 C.ar    0  <0>0       -0.0218
     15  C1         5.7840   37.2430   59.7940 C.3     0  <0>0        0.0310
     16  C7         4.3080   35.4150   58.9410 C.ar    0  <0>0       -0.0022
     17  C11       -1.1930   30.2660   54.4900 C.3     0  <0>0        0.1117
     18  C12       -0.6370   28.8650   54.4660 C.ar    0  <0>0       -0.0131
     19  C17       -0.8610   28.0350   53.3550 C.ar    0  <0>0       -0.0035
     20  C16       -0.3310   26.7210   53.3510 C.ar    0  <0>0       -0.0003
     21  C18       -1.6000   28.4840   52.2460 C.ar    0  <0>0       -0.0003
     22  C15        0.4070   26.2720   54.4590 C.ar    0  <0>0       -0.0000
     23  C21       -0.5550   25.8910   52.2390 C.ar    0  <0>0       -0.0000
     24  C14        0.6030   27.1050   55.5180 C.ar    0  <0>0       -0.0003
     25  C13        0.0770   28.3940   55.5240 C.ar    0  <0>0       -0.0038
     26  C20       -1.2750   26.3590   51.1830 C.ar    0  <0>0       -0.0000
     27  C19       -1.7970   27.6530   51.1870 C.ar    0  <0>0       -0.0000
@<TRIPOS>BOND
     1    26    27   ar
     2    26    23   ar
     3    27    21   ar
     4    23    20   ar
     5    21    19   ar
     6    20    19   ar
     7    20    22   ar
     8    19    18   ar
     9     4     1    1
    10    22    24   ar
    11    18    17    1
    12    18    25   ar
    13    17     2    1
    14     1     2   am
    15     1     5    1
    16    24    25   ar
    17     2     3    2
    18     5     6   ar
    19     5     9   ar
    20     6     7   ar
    21     9     8   ar
    22     7     8   ar
    23     8    10    1
    24    16    10   ar
    25    16    14   ar
    26    10    11   ar
    27    15    14    1
    28    14    13   ar
    29    11    12   ar
    30    13    12   ar
