@<TRIPOS>MOLECULE
ZINC35548206_replica-1.pdb
 22 23 0 0 0
SMALL
GASTEIGER

@<TRIPOS>ATOM
      1  C3         8.5670   36.9780   59.1240 C.3     0  <0>0        0.0206
      2  N1         8.4640   38.3980   59.4870 N.4     0  <0>0        0.3922
      3  H7         9.3840   38.7630   59.6790 H       0  <0>0       -0.0833
      4  H26        7.8860   38.4940   60.3080 H       0  <0>0       -0.0833
      5  C2         7.8630   39.1460   58.3740 C.3     0  <0>0       -0.0807
      6  C1         8.5480   38.7500   57.0640 C.3     0  <0>0       -0.0255
      7  C4         9.5660   36.3010   60.0260 C.ar    0  <0>0       -0.0350
      8  C9        10.0350   35.0380   59.7140 C.ar    0  <0>0       -0.0062
      9  C8        10.9540   34.4180   60.5390 C.ar    0  <0>0       -0.0047
     10  C7        11.3980   35.0570   61.6820 C.ar    0  <0>0       -0.0228
     11  C6        10.9260   36.3170   61.9980 C.ar    0  <0>0       -0.0047
     12  C5        10.0100   36.9390   61.1700 C.ar    0  <0>0       -0.0062
     13  C10       12.3970   34.3790   62.5840 C.3     0  <0>0        0.0189
     14  C11       11.8840   32.9870   62.9580 C.3     0  <0>0        0.0044
     15  C12       13.7360   34.2500   61.8570 C.3     0  <0>0        0.0044
     16  C13       12.5840   35.2110   63.8540 C.3     0  <0>0        0.0044
     17  C14        7.2210   36.3200   59.2810 C.ar    0  <0>0        0.1066
     18  O1         6.5240   35.7150   58.3060 O.2     0  <0>0       -0.4638
     19  C17        5.3730   35.2390   58.8080 C.ar    0  <0>0        0.1227
     20  C16        5.3210   35.5460   60.1160 C.ar    0  <0>0        0.0357
     21  C18        4.3160   34.4930   58.0350 C.3     0  <0>0        0.0725
     22  C15        6.5120   36.2420   60.4220 C.ar    0  <0>0        0.0339
@<TRIPOS>BOND
     1     6     5    1
     2    21    19    1
     3    18    19   ar
     4    18    17   ar
     5     5     2    1
     6    19    20   ar
     7     1    17    1
     8     1     2    1
     9     1     7    1
    10    17    22   ar
    11     2     3    1
    12     2     4    1
    13     8     7   ar
    14     8     9   ar
    15     7    12   ar
    16    20    22   ar
    17     9    10   ar
    18    12    11   ar
    19    10    11   ar
    20    10    13    1
    21    15    13    1
    22    13    14    1
    23    13    16    1
