@<TRIPOS>MOLECULE
ZINC38512005_replica-1.pdb
 28 30 0 0 0
SMALL
GASTEIGER

@<TRIPOS>ATOM
      1  C8         3.0580   32.8440   57.7340 C.2     0  <0>0        0.2113
      2  N2         2.2990   32.1750   56.8890 N.2     0  <0>0       -0.3797
      3  C9         0.9690   32.1940   56.9930 C.2     0  <0>0        0.1754
      4  C10        0.3890   32.9240   58.0000 C.3     0  <0>0        0.1295
      5  S1         1.8400   33.5870   58.8080 S.3     0  <0>0       -0.0592
      6  C11        0.1350   31.4410   56.0400 C.2     0  <0>0        0.2724
      7  O1        -1.0770   31.5430   56.0800 O.2     0  <0>0       -0.2677
      8  N3         0.7140   30.6410   55.1240 N.am    0  <0>0       -0.2987
      9  H9         1.6810   30.5610   55.0920 H       0  <0>0        0.1498
     10  C12       -0.1150   29.8940   54.1760 C.3     0  <0>0        0.0941
     11  C13       -0.1390   28.4150   54.5730 C.3     0  <0>0        0.0429
     12  C14       -0.5130   27.5800   53.3770 C.2     0  <0>0       -0.0468
     13  C19       -1.3980   28.2000   52.3350 C.3     0  <0>0        0.0218
     14  C18       -1.3180   27.3960   51.0330 C.3     0  <0>0        0.0047
     15  C17       -1.5320   25.9140   51.3690 C.3     0  <0>0        0.0050
     16  C16       -0.3340   25.4240   52.1840 C.3     0  <0>0        0.0254
     17  C15       -0.0570   26.3700   53.3150 C.2     0  <0>0       -0.0346
     18  N1         4.4400   32.9400   57.7800 N.pl3   0  <0>0       -0.2807
     19  H7         4.9780   32.1420   57.9030 H       0  <0>0        0.1552
     20  C6         5.0590   34.1890   57.6510 C.ar    0  <0>0        0.0846
     21  C5         5.4680   34.6390   56.3980 C.ar    0  <0>0        0.1520
     22  C4         6.0800   35.8770   56.2760 C.ar    0  <0>0        0.0379
     23  C3         6.2840   36.6600   57.3960 C.ar    0  <0>0       -0.0011
     24  C2         5.8780   36.2140   58.6410 C.ar    0  <0>0       -0.0204
     25  C1         6.1040   37.0740   59.8580 C.3     0  <0>0        0.0311
     26  C7         5.2710   34.9800   58.7720 C.ar    0  <0>0        0.0135
     27  O2         5.2670   33.8670   55.2970 O.3     0  <0>0       -0.4702
     28  C20        4.6160   34.4820   54.1830 C.3     0  <0>0        0.2525
@<TRIPOS>BOND
     1    14    15    1
     2    14    13    1
     3    15    16    1
     4    16    17    1
     5    13    12    1
     6    17    12    2
     7    12    11    1
     8    10    11    1
     9    10     8    1
    10    28    27    1
    11     9     8    1
    12     8     6   am
    13    27    21    1
    14     6     7    2
    15     6     3    1
    16    22    21   ar
    17    22    23   ar
    18    21    20   ar
    19     2     3    2
    20     2     1    2
    21     3     4    1
    22    23    24   ar
    23    20    18    1
    24    20    26   ar
    25     1    18    1
    26     1     5    1
    27    18    19    1
    28     4     5    1
    29    24    26   ar
    30    24    25    1
