@<TRIPOS>MOLECULE
ZINC66170284_replica-1.pdb
 25 27 0 0 0
SMALL
GASTEIGER

@<TRIPOS>ATOM
      1  C8        10.2700   35.6590   60.4120 C.ar    0  <0>0        0.0451
      2  C9        10.0570   34.8760   59.2860 C.ar    0  <0>0        0.0174
      3  C10        9.2860   35.3580   58.2460 C.ar    0  <0>0        0.0382
      4  C11        8.7250   36.6240   58.3270 C.ar    0  <0>0        0.1386
      5  C12        8.9380   37.4070   59.4510 C.ar    0  <0>0        0.0382
      6  C13        9.7040   36.9250   60.4940 C.ar    0  <0>0        0.0174
      7  N1        11.0500   35.1720   61.4670 N.pl3   0  <0>0       -0.3290
      8  H7        11.6570   35.7660   61.9360 H       0  <0>0        0.1471
      9  C7        10.9510   33.7650   61.8620 C.3     0  <0>0        0.1165
     10  C5        12.2590   33.3180   62.4620 C.ar    0  <0>0        0.0249
     11  C4        12.3380   32.1060   63.1250 C.ar    0  <0>0        0.1377
     12  C3        13.5420   31.6970   63.6760 C.ar    0  <0>0        0.0294
     13  F1        11.2430   31.3230   63.2370 F       0  <0>0       -0.2044
     14  C2        14.6620   32.4970   63.5610 C.ar    0  <0>0        0.0023
     15  C1        14.5810   33.7080   62.8970 C.ar    0  <0>0       -0.0001
     16  C6        13.3800   34.1180   62.3480 C.ar    0  <0>0       -0.0004
     17  O1         7.9660   37.0970   57.3020 O.3     0  <0>0       -0.4755
     18  C14        7.3430   36.1280   56.4550 C.3     0  <0>0        0.2054
     19  C15        5.9970   36.6680   55.9670 C.3     0  <0>0        0.0473
     20  C16        4.8640   35.8830   56.6300 C.3     0  <0>0        0.0037
     21  C21        4.8810   36.1380   58.1390 C.3     0  <0>0        0.0001
     22  C20        3.7480   35.3530   58.8020 C.3     0  <0>0        0.0000
     23  C19        2.4060   35.8070   58.2230 C.3     0  <0>0        0.0000
     24  C18        2.3880   35.5530   56.7140 C.3     0  <0>0        0.0000
     25  C17        3.5220   36.3380   56.0520 C.3     0  <0>0        0.0001
@<TRIPOS>BOND
     1    19    18    1
     2    19    20    1
     3    25    20    1
     4    25    24    1
     5    18    17    1
     6    20    21    1
     7    24    23    1
     8    17     4    1
     9    21    22    1
    10    23    22    1
    11     3     4   ar
    12     3     2   ar
    13     4     5   ar
    14     2     1   ar
    15     5     6   ar
    16     1     6   ar
    17     1     7    1
    18     7     9    1
    19     7     8    1
    20     9    10    1
    21    16    10   ar
    22    16    15   ar
    23    10    11   ar
    24    15    14   ar
    25    11    13    1
    26    11    12   ar
    27    14    12   ar
