@<TRIPOS>MOLECULE
ZINC07670244_replica-1.pdb
 27 30 0 0 0
SMALL
GASTEIGER

@<TRIPOS>ATOM
      1  C12       -0.4360   31.6730   56.1130 C.2     0  <0>0        0.2274
      2  O1         0.4090   31.6860   55.2420 O.2     0  <0>0       -0.2747
      3  N2        -0.3110   32.4800   57.1840 N.am    0  <0>0       -0.2984
      4  H10       -0.9440   32.4150   57.9170 H       0  <0>0        0.1500
      5  C11       -1.6250   30.7550   55.9940 C.3     0  <0>0        0.1129
      6  C10       -1.2410   29.5350   55.1970 C.2     0  <0>0        0.0052
      7  C2        -1.6430   29.4140   53.8970 C.2     0  <0>0       -0.0350
      8  C1        -2.4690   30.4890   53.2380 C.3     0  <0>0        0.0269
      9  C3        -1.2620   28.2580   53.1890 C.3     0  <0>0        0.0923
     10  C8        -0.4850   27.2740   53.8480 C.2     0  <0>0        0.1160
     11  C4        -1.6370   28.0650   51.8500 C.2     0  <0>0       -0.0154
     12  C7        -0.1040   26.1190   53.1440 C.2     0  <0>0        0.0282
     13  N1        -0.1250   27.4550   55.1230 N.2     0  <0>0       -0.4102
     14  C6        -0.4850   25.9630   51.8460 C.2     0  <0>0        0.0020
     15  C5        -1.2500   26.9330   51.2000 C.2     0  <0>0       -0.0038
     16  C9        -0.4730   28.5320   55.7830 C.2     0  <0>0        0.1049
     17  C21       -0.0350   28.6880   57.2180 C.3     0  <0>0        0.0660
     18  C13        0.7340   33.4100   57.2430 C.3     0  <0>0        0.1171
     19  C18        2.0090   33.0090   57.6190 C.2     0  <0>0        0.0067
     20  C17        3.0190   33.9380   57.6690 C.2     0  <0>0        0.0587
     21  C16        2.8140   35.3010   57.3520 C.2     0  <0>0        0.1371
     22  S1         4.7460   33.9080   58.0780 S.3     0  <0>0       -0.0575
     23  C15        1.5030   35.6700   56.9740 C.2     0  <0>0        0.0300
     24  N3         3.9180   36.0710   57.4560 N.2     0  <0>0       -0.3993
     25  C14        0.5060   34.7480   56.9240 C.2     0  <0>0        0.0002
     26  C19        5.0740   35.5930   57.8200 C.2     0  <0>0        0.1389
     27  C20        6.3800   36.3260   57.9790 C.3     0  <0>0        0.0739
@<TRIPOS>BOND
     1    15    14    1
     2    15    11    2
     3    14    12    2
     4    11     9    1
     5    12    10    1
     6     9    10    1
     7     9     7    1
     8     8     7    1
     9    10    13    2
    10     7     6    2
    11    13    16    2
    12     6    16    1
    13     6     5    1
    14     2     1    2
    15    16    17    1
    16     5     1    1
    17     1     3   am
    18    25    23    2
    19    25    18    1
    20    23    21    1
    21     3    18    1
    22     3     4    1
    23    18    19    1
    24    21    24    2
    25    21    20    1
    26    24    26    2
    27    19    20    2
    28    20    22    1
    29    26    27    1
    30    26    22    1
