@<TRIPOS>MOLECULE
ZINC60371016_replica-1.pdb
 26 27 0 0 0
SMALL
GASTEIGER

@<TRIPOS>ATOM
      1  C1         5.4210   36.4380   55.9120 C.3     0  <0>0        0.0358
      2  C2         5.2740   35.2680   56.8870 C.3     0  <0>0        0.1683
      3  C3         3.8890   35.2810   57.4810 C.ar    0  <0>0        0.0336
      4  C8         3.6630   34.7140   58.7230 C.ar    0  <0>0        0.1383
      5  C7         2.3910   34.7300   59.2710 C.ar    0  <0>0        0.0317
      6  F1         4.6840   34.1480   59.4030 F       0  <0>0       -0.2044
      7  C6         1.3460   35.3050   58.5730 C.ar    0  <0>0        0.0319
      8  C5         1.5720   35.8680   57.3290 C.ar    0  <0>0        0.1400
      9  C4         2.8430   35.8550   56.7830 C.ar    0  <0>0        0.0297
     10  F2         0.5490   36.4290   56.6470 F       0  <0>0       -0.2042
     11  C9         5.4930   33.9700   56.1510 C.2     0  <0>0        0.3371
     12  O1         5.3170   33.9160   54.9580 O.2     0  <0>0       -0.2480
     13  O2         5.8840   32.8770   56.8240 O.3     0  <0>0       -0.4431
     14  C10        7.0340   32.1870   56.3280 C.3     0  <0>0        0.2557
     15  N1         6.2660   35.3960   57.9570 N.am    0  <0>0       -0.2917
     16  C11        7.5420   35.7100   57.6600 C.2     0  <0>0        0.2468
     17  O3         7.8700   35.8860   56.5020 O.2     0  <0>0       -0.2701
     18  H10        6.0040   35.2550   58.8800 H       0  <0>0        0.1504
     19  C12        8.5420   35.8380   58.7380 C.ar    0  <0>0        0.0597
     20  C17        8.6060   37.0080   59.5000 C.ar    0  <0>0        0.0412
     21  C16        9.5390   37.1200   60.5100 C.ar    0  <0>0        0.0365
     22 Br          7.4110   38.4320   59.1510 Br      0  <0>0       -0.0488
     23  C15       10.4190   36.0800   60.7630 C.ar    0  <0>0        0.1406
     24  C14       10.3630   34.9180   60.0070 C.ar    0  <0>0        0.0298
     25  F3        11.3330   36.1960   61.7500 F       0  <0>0       -0.2042
     26  C13        9.4310   34.7930   58.9990 C.ar    0  <0>0        0.0073
@<TRIPOS>BOND
     1    12    11    2
     2     1     2    1
     3    11    13    1
     4    11     2    1
     5    14    13    1
     6    17    16    2
     7    10     8    1
     8     9     8   ar
     9     9     3   ar
    10     2     3    1
    11     2    15    1
    12     8     7   ar
    13     3     4   ar
    14    16    15   am
    15    16    19    1
    16    15    18    1
    17     7     5   ar
    18     4     5   ar
    19     4     6    1
    20    19    26   ar
    21    19    20   ar
    22    26    24   ar
    23    22    20    1
    24    20    21   ar
    25    24    23   ar
    26    21    23   ar
    27    23    25    1
