@<TRIPOS>MOLECULE
ZINC28360128_replica-1.pdb
 27 29 0 0 0
SMALL
GASTEIGER

@<TRIPOS>ATOM
      1  C9        -1.3050   27.6810   57.9020 C.ar    0  <0>0        0.0655
      2  C10       -1.6100   28.3760   56.7350 C.ar    0  <0>0        0.0318
      3  C11       -1.2790   29.7250   56.6640 C.ar    0  <0>0        0.0653
      4  C12       -0.6650   30.3280   57.7550 C.ar    0  <0>0        0.1132
      5  N2        -0.3980   29.6380   58.8470 N.ar    0  <0>0       -0.2397
      6  C13       -0.6970   28.3580   58.9510 C.ar    0  <0>0        0.1132
      7  N3        -1.5580   30.4630   55.5120 N.pl3   0  <0>0       -0.3311
      8  H14       -2.3360   31.2410   55.5300 H       0  <0>0        0.1469
      9  C14       -0.8130   30.2020   54.2770 C.3     0  <0>0        0.0918
     10  C15       -1.7860   29.7850   53.1730 C.3     0  <0>0        0.0475
     11  C16       -1.4220   28.4100   52.6740 C.ar    0  <0>0       -0.0203
     12  C21       -0.5670   27.6130   53.4110 C.ar    0  <0>0       -0.0019
     13  C20       -0.2310   26.3520   52.9540 C.ar    0  <0>0        0.0293
     14  C19       -0.7530   25.8880   51.7590 C.ar    0  <0>0        0.1401
     15  C18       -1.6090   26.6880   51.0220 C.ar    0  <0>0        0.0293
     16  F1        -0.4250   24.6560   51.3110 F       0  <0>0       -0.2042
     17  C17       -1.9470   27.9460   51.4820 C.ar    0  <0>0       -0.0019
     18  N1        -1.6140   26.3240   58.0190 N.pl3   0  <0>0       -0.3294
     19  H10       -2.5860   25.9490   57.6680 H       0  <0>0        0.1471
     20  C2        -0.6410   25.4000   58.6080 C.3     0  <0>0        0.0920
     21  C1        -1.2840   24.6660   59.7870 C.3     0  <0>0        0.0261
     22  C3        -0.2070   24.3980   57.5690 C.ar    0  <0>0       -0.0046
     23  C8         0.2860   24.8330   56.3530 C.ar    0  <0>0       -0.0027
     24  C7         0.6830   23.9130   55.4000 C.ar    0  <0>0       -0.0003
     25  C6         0.5890   22.5600   55.6630 C.ar    0  <0>0       -0.0000
     26  C5         0.0970   22.1260   56.8810 C.ar    0  <0>0       -0.0003
     27  C4        -0.2970   23.0450   57.8350 C.ar    0  <0>0       -0.0027
@<TRIPOS>BOND
     1    15    17   ar
     2    15    14   ar
     3    16    14    1
     4    17    11   ar
     5    14    13   ar
     6    11    10    1
     7    11    12   ar
     8    13    12   ar
     9    10     9    1
    10     9     7    1
    11    24    25   ar
    12    24    23   ar
    13     7     8    1
    14     7     3    1
    15    25    26   ar
    16    23    22   ar
    17     3     2   ar
    18     3     4   ar
    19     2     1   ar
    20    26    27   ar
    21    22    27   ar
    22    22    20    1
    23    19    18    1
    24     4     5   ar
    25     1    18    1
    26     1     6   ar
    27    18    20    1
    28    20    21    1
    29     5     6   ar
