@<TRIPOS>MOLECULE
ZINC13778272_replica-1.pdb
 25 27 0 0 0
SMALL
GASTEIGER

@<TRIPOS>ATOM
      1  C10        0.6930   30.1400   57.9850 C.3     0  <0>0        0.2339
      2  C8         0.8040   31.5600   58.4760 C.ar    0  <0>0        0.0435
      3  C7         0.5350   31.8570   59.8010 C.ar    0  <0>0        0.0581
      4  C6         0.6370   33.1600   60.2540 C.ar    0  <0>0        0.0125
      5 Cl          0.0680   30.5920   60.8940 Cl      0  <0>0       -0.0824
      6  C5         1.0080   34.1690   59.3870 C.ar    0  <0>0        0.0162
      7  C4         1.2790   33.8760   58.0580 C.ar    0  <0>0        0.0584
      8  C9         1.1710   32.5660   57.6020 C.ar    0  <0>0        0.0712
      9 Cl          1.5030   32.1950   55.9380 Cl      0  <0>0       -0.0811
     10  N1         1.6540   34.8950   57.1780 N.pl3   0  <0>0       -0.3051
     11  C3         0.5240   35.7910   56.8980 C.3     0  <0>0        0.1122
     12  C2         2.8050   35.6440   57.6990 C.3     0  <0>0        0.0909
     13  C1         3.7350   36.0190   56.5440 C.3     0  <0>0        0.0232
     14  O1        -0.6780   29.8320   57.7270 O.2     0  <0>0       -0.4667
     15  C11       -1.0710   29.8080   56.4260 C.2     0  <0>0        0.1830
     16  C15       -0.7160   28.7220   55.5930 C.2     0  <0>0        0.2214
     17  N2        -1.1240   28.7100   54.2850 N.pl3   0  <0>0       -0.2451
     18  N3        -0.0300   27.6110   55.8190 N.2     0  <0>0       -0.3895
     19  C14       -1.8620   29.7460   53.7800 C.2     0  <0>0        0.0685
     20  C17       -0.6510   27.5550   53.7270 C.3     0  <0>0        0.1846
     21  C13       -2.2030   30.7920   54.5600 C.2     0  <0>0        0.0194
     22  C12       -1.8070   30.8330   55.9070 C.2     0  <0>0        0.0423
     23  C16        0.0220   26.8920   54.6940 C.2     0  <0>0        0.1181
     24 Br         -0.8920   26.9910   51.9380 Br      0  <0>0       -0.0517
     25  C18        0.7150   25.5640   54.5320 C.3     0  <0>0        0.0643
@<TRIPOS>BOND
     1    24    20    1
     2    20    17    1
     3    20    23    1
     4    19    17    1
     5    19    21    2
     6    17    16    1
     7    25    23    1
     8    21    22    1
     9    23    18    2
    10    16    18    2
    11    16    15    1
    12    22    15    2
    13     9     8    1
    14    15    14    1
    15    13    12    1
    16    11    10    1
    17    10    12    1
    18    10     7    1
    19     8     7   ar
    20     8     2   ar
    21    14     1    1
    22     1     2    1
    23     7     6   ar
    24     2     3   ar
    25     6     4   ar
    26     3     4   ar
    27     3     5    1
