@<TRIPOS>MOLECULE
ZINC23329186_replica-1.pdb
 28 30 0 0 0
SMALL
GASTEIGER

@<TRIPOS>ATOM
      1  C9        -0.4920   29.9630   56.2080 C.ar    0  <0>0        0.2094
      2  N1         0.1910   29.3320   57.1360 N.ar    0  <0>0       -0.1207
      3  N2         1.1230   30.0950   57.5850 N.ar    0  <0>0       -0.1274
      4  C10        1.0910   31.2470   56.9760 C.ar    0  <0>0        0.2042
      5  N3         0.0640   31.2020   56.0740 N.ar    0  <0>0       -0.2242
      6  C11        2.0170   32.4110   57.2180 C.3     0  <0>0        0.2719
      7  O1         2.3510   33.0210   55.9700 O.3     0  <0>0       -0.4672
      8  C12        3.3350   33.9590   55.9850 C.ar    0  <0>0        0.1392
      9  C17        4.3820   33.8800   55.0790 C.ar    0  <0>0        0.0366
     10  C16        5.3790   34.8380   55.0930 C.ar    0  <0>0       -0.0012
     11  C15        5.3380   35.8670   56.0160 C.ar    0  <0>0       -0.0223
     12  C14        4.2980   35.9430   56.9240 C.ar    0  <0>0       -0.0012
     13  C13        3.2960   34.9920   56.9110 C.ar    0  <0>0        0.0366
     14  C18        6.4290   36.9050   56.0330 C.3     0  <0>0        0.0224
     15  C19        7.0380   36.9850   57.4350 C.3     0  <0>0        0.0047
     16  C20        7.5150   36.5200   55.0260 C.3     0  <0>0        0.0047
     17  N4        -0.3250   32.1930   55.2190 N.pl3   0  <0>0       -0.2947
     18  H10       -1.3270   32.1970   55.1010 H       0  <0>0        0.1627
     19  H11        0.0070   33.0920   55.5320 H       0  <0>0        0.1627
     20  S1        -1.8640   29.3260   55.3030 S.3     0  <0>0       -0.0706
     21  C2        -1.3470   29.4620   53.5700 C.3     0  <0>0        0.0770
     22  C1        -2.4690   30.1030   52.7510 C.3     0  <0>0        0.0169
     23  C3        -1.0500   28.0870   53.0260 C.ar    0  <0>0       -0.0120
     24  C8        -0.2750   27.2070   53.7580 C.ar    0  <0>0       -0.0034
     25  C7        -0.0070   25.9450   53.2610 C.ar    0  <0>0       -0.0003
     26  C6        -0.5050   25.5680   52.0280 C.ar    0  <0>0       -0.0000
     27  C5        -1.2750   26.4500   51.2950 C.ar    0  <0>0       -0.0003
     28  C4        -1.5470   27.7100   51.7930 C.ar    0  <0>0       -0.0034
@<TRIPOS>BOND
     1    27    28   ar
     2    27    26   ar
     3    28    23   ar
     4    26    25   ar
     5    22    21    1
     6    23    21    1
     7    23    24   ar
     8    25    24   ar
     9    21    20    1
    10    16    14    1
    11     9    10   ar
    12     9     8   ar
    13    10    11   ar
    14    18    17    1
    15    17    19    1
    16    17     5    1
    17    20     1    1
    18     7     8    1
    19     7     6    1
    20     8    13   ar
    21    11    14    1
    22    11    12   ar
    23    14    15    1
    24     5     1   ar
    25     5     4   ar
    26     1     2   ar
    27    13    12   ar
    28     4     6    1
    29     4     3   ar
    30     2     3   ar
