@<TRIPOS>MOLECULE
ZINC03893936_replica-1.pdb
 24 27 0 0 0
SMALL
GASTEIGER

@<TRIPOS>ATOM
      1  C1        13.8830   33.1520   63.0000 C.3     0  <0>0        0.0004
      2  C2        13.1330   34.4110   62.5590 C.3     0  <0>0        0.0049
      3  C3        12.4230   35.0320   63.7660 C.3     0  <0>0        0.0083
      4  C4        11.8820   36.4130   63.3830 C.3     0  <0>0        0.0642
      5  C5        11.0990   36.2890   62.0960 C.ar    0  <0>0        0.1188
      6  C6        11.1960   35.2290   61.2670 C.ar    0  <0>0        0.0111
      7  C7        10.2900   35.4870   60.1650 C.ar    0  <0>0        0.0344
      8  C8         9.9580   34.7680   59.0140 C.ar    0  <0>0        0.0187
      9  C9         9.0230   35.3460   58.1640 C.ar    0  <0>0        0.0650
     10  C10        8.4440   36.5790   58.4460 C.ar    0  <0>0        0.0190
     11  C11        8.7650   37.3010   59.5820 C.ar    0  <0>0        0.0388
     12  C12        9.6990   36.7430   60.4490 C.ar    0  <0>0        0.1446
     13  O1        10.2150   37.1750   61.6060 O.2     0  <0>0       -0.4581
     14  C17       12.0920   34.0400   61.4950 C.3     0  <0>0        0.0292
     15  N1         8.6520   34.6700   56.9970 N.pl3   0  <0>0       -0.2146
     16  H12        9.1640   34.7940   56.1820 H       0  <0>0        0.1737
     17  S1         7.3400   33.6600   57.0050 S.O2    0  <0>0        0.0793
     18  O2         7.6730   32.5550   56.1750 O.2     0  <0>0       -0.1494
     19  O3         6.9560   33.5040   58.3640 O.2     0  <0>0       -0.1494
     20  C13        6.0220   34.5120   56.2040 C.ar    0  <0>0        0.1546
     21  S2         5.1190   34.0580   54.7320 S.2     0  <0>0       -0.0665
     22  C16        4.0130   35.4580   54.6730 C.ar    0  <0>0        0.0368
     23  C15        4.4040   36.1710   55.7580 C.ar    0  <0>0        0.0089
     24  C14        5.4340   35.6860   56.5430 C.ar    0  <0>0        0.0274
@<TRIPOS>BOND
     1    22    21   ar
     2    22    23   ar
     3    21    20   ar
     4    23    24   ar
     5    18    17    2
     6    16    15    1
     7    20    24   ar
     8    20    17    1
     9    15    17    1
    10    15     9    1
    11    17    19    2
    12     9    10   ar
    13     9     8   ar
    14    10    11   ar
    15     8     7   ar
    16    11    12   ar
    17     7    12   ar
    18     7     6   ar
    19    12    13   ar
    20     6    14    1
    21     6     5   ar
    22    14     2    1
    23    13     5   ar
    24     5     4    1
    25     2     1    1
    26     2     3    1
    27     4     3    1
