@<TRIPOS>MOLECULE
ZINC04392189_replica-1.pdb
 24 25 0 0 0
SMALL
GASTEIGER

@<TRIPOS>ATOM
      1  C1        -0.3730   26.6320   51.6360 C.3     0  <0>0        0.0000
      2  C2        -0.3400   25.7200   52.8650 C.3     0  <0>0        0.0000
      3  C3         0.6860   26.2540   53.8680 C.3     0  <0>0        0.0000
      4  C4         0.0200   26.4230   55.2360 C.3     0  <0>0        0.0001
      5  C5         0.2500   27.8480   55.7430 C.3     0  <0>0        0.0017
      6  C6        -1.0940   28.4810   56.1110 C.3     0  <0>0        0.0196
      7  C7        -1.2440   29.8190   55.3850 C.3     0  <0>0        0.0716
      8  C8        -2.5680   29.8360   54.6170 C.3     0  <0>0        0.0196
      9  C9        -2.3030   30.1960   53.1530 C.3     0  <0>0        0.0017
     10  C10       -2.9270   29.1330   52.2460 C.3     0  <0>0        0.0001
     11  C11       -1.8670   28.6020   51.2790 C.3     0  <0>0        0.0000
     12  C12       -1.8130   27.0750   51.3700 C.3     0  <0>0        0.0000
     13  N1        -1.2330   30.9100   56.3630 N.am    0  <0>0       -0.3060
     14  C13       -0.1090   31.6250   56.5620 C.2     0  <0>0        0.2225
     15  O1         0.8940   31.3650   55.9320 O.2     0  <0>0       -0.2751
     16  H25       -2.0360   31.1180   56.8670 H       0  <0>0        0.1494
     17  C14       -0.0960   32.7430   57.5730 C.3     0  <0>0        0.0868
     18  C15        0.9210   32.4260   58.6710 C.3     0  <0>0        0.0344
     19  C18        0.9400   33.5770   59.7170 C.3     0  <0>0        0.1513
     20  S1         1.7090   32.7150   61.1520 S.O2    0  <0>0       -0.0100
     21  C17        1.3430   30.9730   60.6940 C.3     0  <0>0        0.1509
     22  O2         3.1150   32.9190   61.1140 O.2     0  <0>0       -0.1730
     23  O3         0.9860   33.0450   62.3310 O.2     0  <0>0       -0.1730
     24  C16        0.5190   31.1300   59.3920 C.3     0  <0>0        0.0275
@<TRIPOS>BOND
     1    11    12    1
     2    11    10    1
     3    12     1    1
     4     1     2    1
     5    10     9    1
     6     2     3    1
     7     9     8    1
     8     3     4    1
     9     8     7    1
    10     4     5    1
    11     7     6    1
    12     7    13    1
    13     5     6    1
    14    15    14    2
    15    13    14   am
    16    13    16    1
    17    14    17    1
    18    17    18    1
    19    18    24    1
    20    18    19    1
    21    24    21    1
    22    19    20    1
    23    21    20    1
    24    22    20    2
    25    20    23    2
