@<TRIPOS>MOLECULE
ZINC09813418_replica-1.pdb
 26 28 0 0 0
SMALL
GASTEIGER

@<TRIPOS>ATOM
      1  N1        10.1020   34.0320   61.2230 N.pl3   0  <0>0       -0.3272
      2  H4         9.3670   33.4160   61.0850 H       0  <0>0        0.1472
      3  C6        11.2450   33.6140   61.9110 C.ar    0  <0>0        0.0449
      4  C1        12.3480   34.4520   62.0040 C.ar    0  <0>0        0.0152
      5  C2        13.4760   34.0360   62.6840 C.ar    0  <0>0        0.0126
      6  C3        13.5070   32.7850   63.2730 C.ar    0  <0>0        0.0616
      7  C4        12.4100   31.9470   63.1820 C.ar    0  <0>0        0.0832
      8 Cl         14.9250   32.2650   64.1280 Cl      0  <0>0       -0.0823
      9  C5        11.2790   32.3580   62.5040 C.ar    0  <0>0        0.0190
     10  C16       12.4470   30.5850   63.8250 C.3     0  <0>0        0.4194
     11  F1        11.1450   30.0830   63.9330 F       0  <0>0       -0.1658
     12  F2        13.2160   29.7200   63.0390 F       0  <0>0       -0.1658
     13  F3        13.0150   30.6850   65.1000 F       0  <0>0       -0.1658
     14  C7        10.0170   35.4030   60.7120 C.3     0  <0>0        0.1431
     15  C8         8.9290   35.4830   59.6710 C.2     0  <0>0        0.1172
     16  N3         7.6700   35.6530   60.0420 N.2     0  <0>0       -0.3927
     17  C15        6.6880   35.7280   59.1460 C.2     0  <0>0        0.1921
     18  N2         6.9520   35.6300   57.8070 N.am    0  <0>0       -0.2102
     19  C14        5.3630   35.9100   59.5820 C.2     0  <0>0        0.0489
     20  C10        8.2220   35.4550   57.3840 C.2     0  <0>0        0.2418
     21  C11        5.9420   35.7080   56.8970 C.2     0  <0>0        0.0810
     22  C9         9.2490   35.3820   58.3310 C.3     0  <0>0        0.1420
     23  O1         8.4710   35.3670   56.1910 O.2     0  <0>0       -0.2737
     24  C12        4.6620   35.8830   57.2980 C.2     0  <0>0        0.0500
     25  C13        4.3590   35.9870   58.6630 C.2     0  <0>0        0.0120
     26 Br          3.2760   35.9900   56.0150 Br      0  <0>0       -0.0476
@<TRIPOS>BOND
     1    26    24    1
     2    23    20    2
     3    21    24    2
     4    21    18    1
     5    24    25    1
     6    20    18   am
     7    20    22    1
     8    18    17    1
     9    22    15    1
    10    25    19    2
    11    17    19    1
    12    17    16    2
    13    15    16    2
    14    15    14    1
    15    14     1    1
    16     2     1    1
    17     1     3    1
    18     3     4   ar
    19     3     9   ar
    20     4     5   ar
    21     9     7   ar
    22     5     6   ar
    23    12    10    1
    24     7     6   ar
    25     7    10    1
    26     6     8    1
    27    10    11    1
    28    10    13    1
