@<TRIPOS>MOLECULE
ZINC16392673_replica-1.pdb
 29 32 0 0 0
SMALL
GASTEIGER

@<TRIPOS>ATOM
      1  C9        -0.8550   30.8780   56.3750 C.2     0  <0>0        0.0441
      2  C10       -0.1410   32.0640   56.4520 C.2     0  <0>0        0.0330
      3  C11        0.4820   32.4180   57.6580 C.2     0  <0>0        0.1309
      4  N2         0.4060   31.6500   58.7260 N.2     0  <0>0       -0.4056
      5  C12       -0.2650   30.4980   58.7170 C.2     0  <0>0        0.1169
      6  C13       -0.9280   30.0690   57.5380 C.3     0  <0>0        0.1014
      7  C14       -1.6240   28.8550   57.5370 C.2     0  <0>0       -0.0082
      8  C15       -1.6680   28.1000   58.6720 C.2     0  <0>0        0.0311
      9  C16       -1.0230   28.5200   59.8340 C.2     0  <0>0        0.0087
     10  C17       -0.3320   29.6920   59.8690 C.2     0  <0>0        0.0287
     11 Br         -2.6180   26.4650   58.6690 Br      0  <0>0       -0.0493
     12  C8        -1.5250   30.4710   55.1200 C.2     0  <0>0        0.2429
     13  N1        -0.8580   29.7350   54.2090 N.am    0  <0>0       -0.2971
     14  H7         0.0600   29.4710   54.3760 H       0  <0>0        0.1500
     15  O1        -2.6760   30.8010   54.9100 O.2     0  <0>0       -0.2705
     16  C7        -1.5220   29.3310   52.9660 C.3     0  <0>0        0.1188
     17  C5        -1.1550   27.9060   52.6420 C.ar    0  <0>0        0.0249
     18  C4        -1.6000   27.3270   51.4670 C.ar    0  <0>0        0.1377
     19  C3        -1.2620   26.0170   51.1700 C.ar    0  <0>0        0.0294
     20  F1        -2.3640   28.0380   50.6090 F       0  <0>0       -0.2044
     21  C2        -0.4810   25.2900   52.0470 C.ar    0  <0>0        0.0023
     22  C1        -0.0360   25.8700   53.2210 C.ar    0  <0>0       -0.0001
     23  C6        -0.3680   27.1790   53.5160 C.ar    0  <0>0       -0.0004
     24  C18        1.2440   33.6890   57.7330 C.ar    0  <0>0        0.0327
     25  C22        1.0130   34.6050   58.7640 C.ar    0  <0>0        0.0232
     26  C21        1.7440   35.7750   58.7950 C.ar    0  <0>0        0.0990
     27  N3         2.6480   36.0330   57.8710 N.ar    0  <0>0       -0.2423
     28  C20        2.8960   35.1970   56.8820 C.ar    0  <0>0        0.0990
     29  C19        2.2150   34.0000   56.7780 C.ar    0  <0>0        0.0232
@<TRIPOS>BOND
     1    20    18    1
     2    19    18   ar
     3    19    21   ar
     4    18    17   ar
     5    21    22   ar
     6    17    16    1
     7    17    23   ar
     8    16    13    1
     9    22    23   ar
    10    13    14    1
    11    13    12   am
    12    15    12    2
    13    12     1    1
    14     1     2    2
    15     1     6    1
    16     2     3    1
    17    29    28   ar
    18    29    24   ar
    19    28    27   ar
    20     7     6    1
    21     7     8    2
    22     6     5    1
    23     3    24    1
    24     3     4    2
    25    24    25   ar
    26    27    26   ar
    27    11     8    1
    28     8     9    1
    29     5     4    2
    30     5    10    1
    31    25    26   ar
    32     9    10    2
