@<TRIPOS>MOLECULE
ZINC36912700_replica-1.pdb
 19 20 0 0 0
SMALL
GASTEIGER

@<TRIPOS>ATOM
      1  C5        11.5860   34.7000   62.1740 C.2     0  <0>0       -0.0259
      2  C6        11.5940   36.0270   62.6010 C.2     0  <0>0       -0.0023
      3  C7        10.8690   36.9760   61.9490 C.2     0  <0>0        0.0280
      4  C8        10.1010   36.6210   60.8270 C.2     0  <0>0        0.1199
      5  C9        10.0960   35.2710   60.3960 C.3     0  <0>0        0.1356
      6  C10       10.8580   34.3200   61.0890 C.2     0  <0>0       -0.0160
      7  C11        9.3220   34.9160   59.2680 C.2     0  <0>0        0.1859
      8  O1         9.2870   33.6380   58.8200 O.2     0  <0>0       -0.2905
      9  C12        8.6020   35.9140   58.6360 C.2     0  <0>0        0.0742
     10  C13        8.6570   37.2150   59.1190 C.2     0  <0>0        0.2051
     11  N1         9.3800   37.5340   60.1670 N.2     0  <0>0       -0.4013
     12  C3        12.4010   33.6750   62.9210 C.3     0  <0>0        0.0220
     13  C4        13.8350   33.6750   62.3860 C.3     0  <0>0        0.0047
     14  C2        11.7840   32.2890   62.7240 C.3     0  <0>0        0.0043
     15  C1        12.7990   31.2170   63.1250 C.3     0  <0>0        0.0003
     16  C14        7.8670   38.2910   58.4190 C.3     0  <0>0        0.4463
     17  F1         6.9870   37.7020   57.5050 F       0  <0>0       -0.1635
     18  F2         7.1380   39.0230   59.3630 F       0  <0>0       -0.1635
     19  F3         8.7420   39.1460   57.7410 F       0  <0>0       -0.1635
@<TRIPOS>BOND
     1    17    16    1
     2    19    16    1
     3    16    10    1
     4    16    18    1
     5     9    10    1
     6     9     7    2
     7     8     7    1
     8    10    11    2
     9     7     5    1
    10    11     4    2
    11     5     4    1
    12     5     6    1
    13     4     3    1
    14     6     1    2
    15     3     2    2
    16     1     2    1
    17     1    12    1
    18    13    12    1
    19    14    12    1
    20    14    15    1
