@<TRIPOS>MOLECULE
ZINC38512097_replica-1.pdb
 29 31 0 0 0
SMALL
GASTEIGER

@<TRIPOS>ATOM
      1  C9        -1.1620   30.2860   54.4070 C.2     0  <0>0        0.2112
      2  N2        -0.0370   30.8750   54.7590 N.2     0  <0>0       -0.3797
      3  C10        0.1760   31.2640   56.0170 C.2     0  <0>0        0.1754
      4  C11       -0.8010   31.0440   56.9560 C.3     0  <0>0        0.1295
      5  S1        -2.0540   30.2550   55.9540 S.3     0  <0>0       -0.0592
      6  C12        1.4390   31.9190   56.3940 C.2     0  <0>0        0.2724
      7  O1         1.9740   31.6450   57.4510 O.2     0  <0>0       -0.2677
      8  N3         2.0000   32.8240   55.5670 N.am    0  <0>0       -0.2987
      9  H12        1.5730   33.0430   54.7250 H       0  <0>0        0.1498
     10  C13        3.2570   33.4770   55.9420 C.3     0  <0>0        0.0944
     11  C14        2.9970   34.9560   56.2320 C.3     0  <0>0        0.0476
     12  C15        4.2690   35.6060   56.7100 C.ar    0  <0>0       -0.0203
     13  C20        5.1420   36.1690   55.7980 C.ar    0  <0>0       -0.0011
     14  C19        6.3070   36.7700   56.2340 C.ar    0  <0>0        0.0366
     15  C18        6.6060   36.7990   57.5890 C.ar    0  <0>0        0.1387
     16  C17        5.7310   36.2290   58.5020 C.ar    0  <0>0        0.0366
     17  C16        4.5660   35.6330   58.0610 C.ar    0  <0>0       -0.0011
     18  O2         7.7530   37.3870   58.0200 O.3     0  <0>0       -0.4714
     19  C21        8.5490   38.0530   57.0380 C.3     0  <0>0        0.2525
     20  N1        -1.5530   29.8190   53.1620 N.pl3   0  <0>0       -0.2833
     21  H10       -2.0170   30.4090   52.5470 H       0  <0>0        0.1551
     22  C5        -1.2780   28.5000   52.7910 C.ar    0  <0>0        0.0464
     23  C4        -0.4690   27.7060   53.5940 C.ar    0  <0>0        0.0140
     24  C3        -0.1990   26.4020   53.2260 C.ar    0  <0>0       -0.0030
     25  C2        -0.7340   25.8880   52.0580 C.ar    0  <0>0       -0.0221
     26  C1        -0.4370   24.4660   51.6590 C.3     0  <0>0        0.0310
     27  C7        -1.5350   26.6780   51.2540 C.ar    0  <0>0       -0.0073
     28  C6        -1.8130   27.9800   51.6200 C.ar    0  <0>0       -0.0087
     29  C8        -2.6910   28.8380   50.7470 C.3     0  <0>0        0.0323
@<TRIPOS>BOND
     1    29    28    1
     2    27    28   ar
     3    27    25   ar
     4    28    22   ar
     5    26    25    1
     6    25    24   ar
     7    21    20    1
     8    22    20    1
     9    22    23   ar
    10    20     1    1
    11    24    23   ar
    12     1     2    2
    13     1     5    1
    14     9     8    1
    15     2     3    2
    16     8    10    1
    17     8     6   am
    18    13    14   ar
    19    13    12   ar
    20    10    11    1
    21     5     4    1
    22     3     6    1
    23     3     4    1
    24    11    12    1
    25    14    15   ar
    26     6     7    2
    27    12    17   ar
    28    19    18    1
    29    15    18    1
    30    15    16   ar
    31    17    16   ar
