@<TRIPOS>MOLECULE
ZINC14103791_replica-1.pdb
 20 22 0 0 0
SMALL
GASTEIGER

@<TRIPOS>ATOM
      1  C7        -0.9240   29.0630   53.9630 C.2     0  <0>0        0.1225
      2  C8        -2.0860   29.6510   54.3750 C.3     0  <0>0        0.1247
      3  S1        -1.4480   30.9530   55.4230 S.3     0  <0>0       -0.0597
      4  C9         0.2870   30.5850   55.2090 C.2     0  <0>0        0.2074
      5  N1         0.2390   29.5480   54.3930 N.2     0  <0>0       -0.3846
      6  N2         1.3910   31.2200   55.7540 N.pl3   0  <0>0       -0.3031
      7  H7         2.2810   30.8690   55.5950 H       0  <0>0        0.1496
      8  C10        1.2140   32.4240   56.5700 C.3     0  <0>0        0.0948
      9  C11        2.5530   32.8130   57.2020 C.3     0  <0>0        0.0542
     10  C12        3.1200   34.0090   56.4800 C.ar    0  <0>0        0.0090
     11  S2         3.2580   35.6980   57.0400 S.2     0  <0>0       -0.0907
     12  C15        4.0220   36.3850   55.5800 C.ar    0  <0>0        0.0351
     13  C14        4.1180   35.2980   54.7760 C.ar    0  <0>0        0.0072
     14  C13        3.6610   34.0780   55.2400 C.ar    0  <0>0        0.0027
     15  C4        -0.9580   27.8980   53.0470 C.ar    0  <0>0        0.0264
     16  C3        -0.2890   26.7230   53.3850 C.ar    0  <0>0        0.0022
     17  C2        -0.3250   25.6410   52.5290 C.ar    0  <0>0        0.0001
     18  C1        -1.0230   25.7210   51.3370 C.ar    0  <0>0        0.0000
     19  C6        -1.6890   26.8850   50.9960 C.ar    0  <0>0        0.0001
     20  C5        -1.6640   27.9710   51.8480 C.ar    0  <0>0        0.0022
@<TRIPOS>BOND
     1    19    18   ar
     2    19    20   ar
     3    18    17   ar
     4    20    15   ar
     5    17    16   ar
     6    15    16   ar
     7    15     1    1
     8     1     2    1
     9     1     5    2
    10     2     3    1
    11     5     4    2
    12    13    14   ar
    13    13    12   ar
    14     4     3    1
    15     4     6    1
    16    14    10   ar
    17    12    11   ar
    18     7     6    1
    19     6     8    1
    20    10    11   ar
    21    10     9    1
    22     8     9    1
