@<TRIPOS>MOLECULE
ZINC06555890_replica-1.pdb
 25 27 0 0 0
SMALL
GASTEIGER

@<TRIPOS>ATOM
      1  N1        -0.8680   29.8760   54.7900 N.ar    0  <0>0       -0.1949
      2  C9        -1.8180   30.1850   55.6990 C.ar    0  <0>0        0.1714
      3  N2        -1.4220   31.2640   56.3220 N.ar    0  <0>0       -0.1119
      4  N3        -0.2920   31.6640   55.8620 N.ar    0  <0>0       -0.0227
      5  N4         0.1130   30.8730   54.9270 N.ar    0  <0>0       -0.0388
      6  C10       -3.0940   29.4250   55.9510 C.3     0  <0>0        0.1162
      7  C11       -2.8380   28.3310   56.9560 C.2     0  <0>0        0.0992
      8  N5        -1.7720   28.3480   57.6620 N.2     0  <0>0       -0.1841
      9  N6        -1.5350   27.3310   58.5960 N.pl3   0  <0>0       -0.2362
     10  H13       -1.6790   27.4970   59.5410 H       0  <0>0        0.1744
     11  C12       -1.0920   26.0780   58.1670 C.ar    0  <0>0        0.0651
     12  C17       -0.1660   25.9820   57.1350 C.ar    0  <0>0        0.0169
     13  C16        0.2700   24.7410   56.7140 C.ar    0  <0>0        0.0127
     14  C15       -0.2140   23.5950   57.3170 C.ar    0  <0>0        0.0578
     15  C14       -1.1370   23.6860   58.3460 C.ar    0  <0>0        0.0127
     16 Cl          0.3360   22.0360   56.7840 Cl      0  <0>0       -0.0822
     17  C13       -1.5710   24.9240   58.7760 C.ar    0  <0>0        0.0169
     18  C6        -0.8650   28.7960   53.8960 C.ar    0  <0>0        0.0858
     19  C5        -1.5680   28.8780   52.7030 C.ar    0  <0>0        0.0189
     20  C4        -1.5630   27.8120   51.8240 C.ar    0  <0>0       -0.0027
     21  C3        -0.8570   26.6640   52.1320 C.ar    0  <0>0       -0.0221
     22  C8        -0.1550   26.5790   53.3200 C.ar    0  <0>0       -0.0027
     23  C7        -0.1520   27.6430   54.2000 C.ar    0  <0>0        0.0189
     24  C2        -0.8530   25.5020   51.1720 C.3     0  <0>0        0.0264
     25  C1        -0.4780   24.2220   51.9220 C.3     0  <0>0        0.0050
@<TRIPOS>BOND
     1    24    25    1
     2    24    21    1
     3    20    21   ar
     4    20    19   ar
     5    21    22   ar
     6    19    18   ar
     7    22    23   ar
     8    18    23   ar
     9    18     1    1
    10     1     5   ar
    11     1     2   ar
    12     5     4   ar
    13     2     6    1
    14     2     3   ar
    15     4     3   ar
    16     6     7    1
    17    13    12   ar
    18    13    14   ar
    19    16    14    1
    20     7     8    2
    21    12    11   ar
    22    14    15   ar
    23     8     9    1
    24    11     9    1
    25    11    17   ar
    26    15    17   ar
    27     9    10    1
