@<TRIPOS>MOLECULE
ZINC32188370_replica-1.pdb
 24 25 0 0 0
SMALL
GASTEIGER

@<TRIPOS>ATOM
      1  C11        0.4850   30.5900   57.6770 C.3     0  <0>0        0.1735
      2  C10       -0.5080   29.4960   57.2800 C.3     0  <0>0        0.2361
      3  O1         0.2090   28.3200   56.8940 O.3     0  <0>0       -0.4728
      4  C7         0.0210   27.8730   55.6240 C.ar    0  <0>0        0.1387
      5  C6        -0.6390   28.6670   54.6980 C.ar    0  <0>0        0.0366
      6  C5        -0.8290   28.2100   53.4080 C.ar    0  <0>0       -0.0012
      7  C4        -0.3600   26.9620   53.0400 C.ar    0  <0>0       -0.0223
      8  C9         0.2980   26.1690   53.9600 C.ar    0  <0>0       -0.0012
      9  C8         0.4900   26.6210   55.2520 C.ar    0  <0>0        0.0366
     10  C2        -0.5690   26.4660   51.6320 C.3     0  <0>0        0.0224
     11  C1        -0.7720   24.9500   51.6510 C.3     0  <0>0        0.0047
     12  C3        -1.8060   27.1390   51.0330 C.3     0  <0>0        0.0047
     13  C12        0.5380   31.6530   56.5780 C.3     0  <0>0        0.1206
     14  N1        -0.1660   32.8560   57.0280 N.pl3   0  <0>0       -0.3289
     15  H17       -1.2610   32.9160   56.9440 H       0  <0>0        0.1469
     16  C13        0.5530   33.9280   57.5650 C.ar    0  <0>0        0.0725
     17  C18        0.6990   34.0500   58.9420 C.ar    0  <0>0        0.1531
     18  C17        1.4100   35.1120   59.4690 C.ar    0  <0>0        0.0309
     19  F1         0.1460   33.1320   59.7650 F       0  <0>0       -0.2029
     20  C16        1.9780   36.0510   58.6260 C.ar    0  <0>0        0.0024
     21  C15        1.8350   35.9320   57.2570 C.ar    0  <0>0        0.0014
     22  C14        1.1280   34.8710   56.7230 C.ar    0  <0>0        0.0166
     23  O2         1.7820   30.0170   57.8480 O.3     0  <0>0       -0.3791
     24  H22        2.0760   29.1350   57.2610 H       0  <0>0        0.2106
@<TRIPOS>BOND
     1    12    10    1
     2    10    11    1
     3    10     7    1
     4     7     6   ar
     5     7     8   ar
     6     6     5   ar
     7     8     9   ar
     8     5     4   ar
     9     9     4   ar
    10     4     3    1
    11    13    14    1
    12    13     1    1
    13    22    21   ar
    14    22    16   ar
    15     3     2    1
    16    15    14    1
    17    14    16    1
    18    21    20   ar
    19    24    23    1
    20     2     1    1
    21    16    17   ar
    22     1    23    1
    23    20    18   ar
    24    17    18   ar
    25    17    19    1
