@<TRIPOS>MOLECULE
ZINC01788905_replica-1.pdb
 32 35 0 0 0
SMALL
GASTEIGER

@<TRIPOS>ATOM
      1  C7        -1.7110   30.3190   56.0700 C.3     0  <0>0        0.1096
      2  C4        -1.9010   29.2760   57.1400 C.ar    0  <0>0       -0.0032
      3  C3        -1.1560   29.3340   58.3030 C.ar    0  <0>0       -0.0026
      4  C2        -1.3310   28.3770   59.2850 C.ar    0  <0>0       -0.0003
      5  C1        -2.2520   27.3610   59.1050 C.ar    0  <0>0       -0.0000
      6  C6        -2.9970   27.3040   57.9420 C.ar    0  <0>0       -0.0003
      7  C5        -2.8250   28.2630   56.9620 C.ar    0  <0>0       -0.0026
      8  C8        -1.0230   31.5470   56.6710 C.3     0  <0>0        0.1154
      9  N1         0.3470   31.6370   56.1620 N.3     0  <0>0       -0.1774
     10  H9         0.6280   31.0760   55.4230 H       0  <0>0        0.1489
     11  S1         1.4190   32.6960   56.8500 S.O2    0  <0>0        0.0603
     12  O1         2.7100   32.1200   56.7030 O.2     0  <0>0       -0.1530
     13  O2         1.0950   33.9850   56.3470 O.2     0  <0>0       -0.1530
     14  C9         1.0770   32.7310   58.5790 C.ar    0  <0>0        0.1220
     15  C14        1.3860   31.6370   59.3670 C.ar    0  <0>0        0.0208
     16  C13        1.1190   31.6640   60.7220 C.ar    0  <0>0        0.0128
     17  C12        0.5430   32.7870   61.2910 C.ar    0  <0>0        0.0578
     18  C11        0.2350   33.8810   60.5030 C.ar    0  <0>0        0.0128
     19 Cl          0.2070   32.8210   62.9940 Cl      0  <0>0       -0.0822
     20  C10        0.5080   33.8540   59.1480 C.ar    0  <0>0        0.0208
     21  N2        -0.8800   29.7710   54.9950 N.pl3   0  <0>0       -0.3295
     22  H14        0.0720   29.6480   55.1320 H       0  <0>0        0.1471
     23  C15       -1.4590   29.4260   53.7750 C.ar    0  <0>0        0.0448
     24  C20       -1.1340   28.2020   53.1540 C.ar    0  <0>0        0.0131
     25  C19       -1.7380   27.8680   51.9170 C.ar    0  <0>0        0.0012
     26  C21       -0.2360   27.3000   53.7480 C.ar    0  <0>0        0.0012
     27  C18       -2.6400   28.7680   51.3240 C.ar    0  <0>0        0.0001
     28  C24       -1.4180   26.6460   51.3010 C.ar    0  <0>0        0.0000
     29  C17       -2.9320   29.9450   51.9420 C.ar    0  <0>0        0.0013
     30  C16       -2.3490   30.2800   53.1610 C.ar    0  <0>0        0.0143
     31  C23       -0.5390   25.7980   51.9040 C.ar    0  <0>0        0.0000
     32  C22        0.0500   26.1240   53.1230 C.ar    0  <0>0        0.0000
@<TRIPOS>BOND
     1    28    31   ar
     2    28    25   ar
     3    27    25   ar
     4    27    29   ar
     5    31    32   ar
     6    25    24   ar
     7    29    30   ar
     8    32    26   ar
     9    24    26   ar
    10    24    23   ar
    11    30    23   ar
    12    23    21    1
    13    21    22    1
    14    21     1    1
    15    10     9    1
    16     1     8    1
    17     1     2    1
    18     9     8    1
    19     9    11    1
    20    13    11    2
    21    12    11    2
    22    11    14    1
    23     7     2   ar
    24     7     6   ar
    25     2     3   ar
    26     6     5   ar
    27     3     4   ar
    28    14    20   ar
    29    14    15   ar
    30     5     4   ar
    31    20    18   ar
    32    15    16   ar
    33    18    17   ar
    34    16    17   ar
    35    17    19    1
