@<TRIPOS>MOLECULE
ZINC45579407_replica-1.pdb
 27 30 0 0 0
SMALL
GASTEIGER

@<TRIPOS>ATOM
      1  C11        9.2030   35.1570   59.6770 C.2     0  <0>0        0.2445
      2  O1        10.1480   34.8470   58.9770 O.2     0  <0>0       -0.2733
      3  N2         9.3260   35.1440   61.0190 N.am    0  <0>0       -0.2585
      4  H8         8.5970   35.4620   61.5760 H       0  <0>0        0.1573
      5  C3         7.9310   35.5430   59.0620 C.3     0  <0>0        0.1782
      6  C2         7.6410   36.6080   58.2170 C.2     0  <0>0        0.1066
      7  C1         8.6980   37.5920   57.7870 C.3     0  <0>0        0.0629
      8  N1         6.4000   36.7130   57.8190 N.2     0  <0>0       -0.4029
      9  C4         5.4780   35.8420   58.1960 C.2     0  <0>0        0.1569
     10  S1         6.3230   34.7770   59.1880 S.3     0  <0>0       -0.0671
     11  C5         4.0450   35.8140   57.8350 C.ar    0  <0>0        0.0357
     12  C10        3.6610   35.8020   56.4930 C.ar    0  <0>0        0.0054
     13  C9         2.3230   35.7700   56.1620 C.ar    0  <0>0        0.0297
     14  C8         1.3600   35.7620   57.1590 C.ar    0  <0>0        0.1401
     15  C7         1.7360   35.7800   58.4930 C.ar    0  <0>0        0.0297
     16  F1         0.0500   35.7360   56.8290 F       0  <0>0       -0.2042
     17  C6         3.0710   35.8050   58.8350 C.ar    0  <0>0        0.0054
     18  C12       10.4960   34.6780   61.6060 C.2     0  <0>0        0.1851
     19  N3        10.6000   33.4000   61.9050 N.2     0  <0>0       -0.3905
     20  C20       11.7100   32.9060   62.4660 C.2     0  <0>0        0.1183
     21  C15       12.7970   33.7660   62.7570 C.3     0  <0>0        0.0964
     22  C19       11.8170   31.5400   62.7790 C.2     0  <0>0        0.0282
     23  C14       12.6900   35.1370   62.4430 C.2     0  <0>0       -0.0111
     24  C16       13.9560   33.2430   63.3500 C.2     0  <0>0       -0.0150
     25  C13       11.5360   35.5790   61.8690 C.2     0  <0>0        0.0440
     26  C17       14.0230   31.9140   63.6400 C.2     0  <0>0       -0.0038
     27  C18       12.9550   31.0650   63.3550 C.2     0  <0>0        0.0020
@<TRIPOS>BOND
     1    13    12   ar
     2    13    14   ar
     3    12    11   ar
     4    16    14    1
     5    14    15   ar
     6     7     6    1
     7     8     9    2
     8     8     6    2
     9    11     9    1
    10    11    17   ar
    11     9    10    1
    12     6     5    1
    13    15    17   ar
    14     2     1    2
    15     5    10    1
    16     5     1    1
    17     1     3   am
    18     3     4    1
    19     3    18    1
    20    18    25    1
    21    18    19    2
    22    25    23    2
    23    19    20    2
    24    23    21    1
    25    20    21    1
    26    20    22    1
    27    21    24    1
    28    22    27    2
    29    24    26    2
    30    27    26    1
