@<TRIPOS>MOLECULE
ZINC13389671_replica-1.pdb
 24 25 0 0 0
SMALL
GASTEIGER

@<TRIPOS>ATOM
      1  C11        8.8870   36.9650   59.9330 C.2     0  <0>0        0.2461
      2  O1         8.9750   38.1580   59.7150 O.2     0  <0>0       -0.2701
      3  N1         7.8210   36.2740   59.4840 N.am    0  <0>0       -0.2977
      4  H15        7.7510   35.3220   59.6580 H       0  <0>0        0.1500
      5  C8         9.9510   36.2720   60.6910 C.ar    0  <0>0        0.0533
      6  C7        10.4440   36.8260   61.8740 C.ar    0  <0>0        0.0042
      7  C6        11.4370   36.1740   62.5760 C.ar    0  <0>0       -0.0041
      8  C5        11.9430   34.9740   62.1100 C.ar    0  <0>0       -0.0222
      9  C10       11.4590   34.4190   60.9390 C.ar    0  <0>0       -0.0041
     10  C9        10.4630   35.0580   60.2300 C.ar    0  <0>0        0.0042
     11  C4        13.0280   34.2670   62.8830 C.3     0  <0>0        0.0263
     12  C2        12.8690   32.7550   62.7190 C.3     0  <0>0        0.0044
     13  C1        13.9860   32.0390   63.4790 C.3     0  <0>0        0.0003
     14  C3        11.5120   32.3220   63.2780 C.3     0  <0>0        0.0003
     15  C12        6.7670   36.9600   58.7320 C.3     0  <0>0        0.1116
     16  C13        5.3980   36.4840   59.2230 C.3     0  <0>0        0.1386
     17  C14        5.5400   35.1310   59.8720 C.2     0  <0>0        0.3669
     18  O2         5.5670   35.0390   61.0770 O.co2   0  <0>0       -0.2456
     19  O3         5.6290   34.0280   59.1130 O.co2   0  <0>0       -0.2456
     20  C15        6.9120   36.6490   57.2650 C.ar    0  <0>0        0.0256
     21  S1         5.6830   36.0490   56.1170 S.2     0  <0>0       -0.0891
     22  C18        6.7130   35.9770   54.6610 C.ar    0  <0>0        0.0352
     23  C17        7.9070   36.4020   55.1410 C.ar    0  <0>0        0.0072
     24  C16        8.0090   36.7470   56.4760 C.ar    0  <0>0        0.0043
@<TRIPOS>BOND
     1    22    23   ar
     2    22    21   ar
     3    23    24   ar
     4    21    20   ar
     5    24    20   ar
     6    20    15    1
     7    15    16    1
     8    15     3    1
     9    19    17   ar
    10    16    17    1
    11     3     4    1
    12     3     1   am
    13     2     1    2
    14    17    18   ar
    15     1     5    1
    16    10     5   ar
    17    10     9   ar
    18     5     6   ar
    19     9     8   ar
    20     6     7   ar
    21     8     7   ar
    22     8    11    1
    23    12    11    1
    24    12    14    1
    25    12    13    1
