@<TRIPOS>MOLECULE
ZINC05162238_replica-1.pdb
 21 22 0 0 0
SMALL
GASTEIGER

@<TRIPOS>ATOM
      1  C9        10.8180   35.6320   61.3420 C.2     0  <0>0        0.1175
      2  N1        10.0640   35.4600   60.2990 N.2     0  <0>0       -0.1797
      3  N2         9.3980   36.5520   59.7290 N.pl3   0  <0>0       -0.2337
      4  H11        9.2330   37.3500   60.2560 H       0  <0>0        0.1745
      5  C10        8.9700   36.4950   58.4000 C.ar    0  <0>0        0.0925
      6  C15        8.6050   37.6590   57.7320 C.ar    0  <0>0        0.1570
      7  C14        8.1840   37.5980   56.4170 C.ar    0  <0>0        0.0606
      8  F1         8.6640   38.8500   58.3700 F       0  <0>0       -0.2027
      9  C13        8.1230   36.3780   55.7660 C.ar    0  <0>0        0.1425
     10  C12        8.4910   35.2170   56.4260 C.ar    0  <0>0        0.0311
     11  F2         7.7100   36.3200   54.4800 F       0  <0>0       -0.2041
     12  C11        8.9080   35.2720   57.7410 C.ar    0  <0>0        0.0206
     13  C6        11.5180   34.4820   61.9430 C.ar    0  <0>0        0.0209
     14  C5        10.8670   33.2510   62.0650 C.ar    0  <0>0        0.0047
     15  C4        11.5270   32.1790   62.6280 C.ar    0  <0>0        0.0369
     16  C3        12.8350   32.3200   63.0710 C.ar    0  <0>0        0.1386
     17  C8        13.4850   33.5410   62.9510 C.ar    0  <0>0        0.0369
     18  C7        12.8370   34.6170   62.3860 C.ar    0  <0>0        0.0047
     19  O1        13.4810   31.2610   63.6240 O.3     0  <0>0       -0.4755
     20  C2        12.8570   29.9820   63.4970 C.3     0  <0>0        0.2055
     21  C1        12.4670   29.4640   64.8830 C.3     0  <0>0        0.0512
@<TRIPOS>BOND
     1    11     9    1
     2     9     7   ar
     3     9    10   ar
     4     7     6   ar
     5    10    12   ar
     6     6     8    1
     7     6     5   ar
     8    12     5   ar
     9     5     3    1
    10     3     4    1
    11     3     2    1
    12     2     1    2
    13     1    13    1
    14    13    14   ar
    15    13    18   ar
    16    14    15   ar
    17    18    17   ar
    18    15    16   ar
    19    17    16   ar
    20    16    19    1
    21    20    19    1
    22    20    21    1
