@<TRIPOS>MOLECULE
ZINC02790640_replica-1.pdb
 20 21 0 0 0
SMALL
GASTEIGER

@<TRIPOS>ATOM
      1  C7        -0.4450   28.3770   54.5330 C.2     0  <0>0        0.1193
      2  N1         0.4880   29.2790   54.4810 N.2     0  <0>0       -0.1772
      3  N2         0.7580   30.0720   55.6030 N.am    0  <0>0       -0.1998
      4  C8         0.1760   31.2820   55.7280 C.2     0  <0>0        0.2992
      5  O1        -0.5840   31.6840   54.8670 O.2     0  <0>0       -0.2650
      6  H5         1.3630   29.7520   56.2890 H       0  <0>0        0.1777
      7  C9         0.4580   32.1120   56.9020 C.ar    0  <0>0        0.2007
      8  O2         0.8380   33.4070   56.8830 O.2     0  <0>0       -0.4423
      9  C12        1.0040   33.8390   58.1410 C.ar    0  <0>0        0.1793
     10  C11        0.7320   32.8210   58.9900 C.ar    0  <0>0        0.0478
     11 Br          1.5340   35.5820   58.6460 Br      0  <0>0       -0.0078
     12  C10        0.3760   31.7130   58.2060 C.ar    0  <0>0        0.0460
     13  C4        -0.7250   27.5370   53.3540 C.ar    0  <0>0        0.0418
     14  C3        -0.2020   26.2430   53.2750 C.ar    0  <0>0        0.0600
     15  C2        -0.4680   25.4620   52.1670 C.ar    0  <0>0        0.0115
     16 Cl          0.7790   25.6180   54.5640 Cl      0  <0>0       -0.0822
     17  C1        -1.2500   25.9570   51.1390 C.ar    0  <0>0        0.0017
     18  C6        -1.7720   27.2370   51.2110 C.ar    0  <0>0        0.0115
     19  C5        -1.5190   28.0280   52.3140 C.ar    0  <0>0        0.0600
     20 Cl         -2.1790   29.6300   52.4050 Cl      0  <0>0       -0.0822
@<TRIPOS>BOND
     1    17    18   ar
     2    17    15   ar
     3    18    19   ar
     4    15    14   ar
     5    19    20    1
     6    19    13   ar
     7    14    13   ar
     8    14    16    1
     9    13     1    1
    10     2     1    2
    11     2     3    1
    12     5     4    2
    13     3     4   am
    14     3     6    1
    15     4     7    1
    16     8     7   ar
    17     8     9   ar
    18     7    12   ar
    19     9    11    1
    20     9    10   ar
    21    12    10   ar
