@<TRIPOS>MOLECULE
ZINC58029326_replica-1.pdb
 24 24 0 0 0
SMALL
GASTEIGER

@<TRIPOS>ATOM
      1  C4        -1.0230   29.9870   54.7700 C.3     0  <0>0        0.1229
      2  C3        -2.1270   30.2730   55.7550 C.2     0  <0>0        0.3185
      3  O2        -3.0380   31.0040   55.4470 O.2     0  <0>0       -0.2500
      4  O1        -2.0970   29.7150   56.9760 O.3     0  <0>0       -0.4485
      5  C2        -2.6100   28.3850   57.0940 C.3     0  <0>0        0.2086
      6  C1        -1.4630   27.4240   57.4120 C.3     0  <0>0        0.0513
      7  C5        -1.6290   29.7020   53.3940 C.3     0  <0>0        0.0392
      8  C6        -1.2260   28.3220   52.9430 C.ar    0  <0>0       -0.0216
      9  C11       -0.4380   27.5310   53.7580 C.ar    0  <0>0       -0.0043
     10  C10       -0.0710   26.2630   53.3450 C.ar    0  <0>0       -0.0003
     11  C9        -0.4860   25.7910   52.1130 C.ar    0  <0>0       -0.0000
     12  C8        -1.2700   26.5850   51.2970 C.ar    0  <0>0       -0.0003
     13  C7        -1.6400   27.8500   51.7110 C.ar    0  <0>0       -0.0043
     14  C12       -0.0960   31.2000   54.6760 C.3     0  <0>0        0.1008
     15  N1        -0.3690   32.1090   55.7920 N.am    0  <0>0       -0.3030
     16  C13        0.6530   32.6740   56.4680 C.2     0  <0>0        0.2338
     17  O3         1.7980   32.4270   56.1510 O.2     0  <0>0       -0.2741
     18  H16       -1.2840   32.3060   56.0460 H       0  <0>0        0.1495
     19  C14        0.3730   33.6090   57.6150 C.3     0  <0>0        0.1501
     20  S1         0.6380   35.3210   57.0780 S.3     0  <0>0       -0.0316
     21  C15        2.2550   35.7540   57.7750 C.3     0  <0>0        0.4442
     22  F1         2.0750   36.4850   58.9530 F       0  <0>0       -0.1602
     23  F2         2.9700   34.5850   58.0560 F       0  <0>0       -0.1602
     24  F3         2.9690   36.5270   56.8520 F       0  <0>0       -0.1602
@<TRIPOS>BOND
     1    12    13   ar
     2    12    11   ar
     3    13     8   ar
     4    11    10   ar
     5     8     7    1
     6     8     9   ar
     7    10     9   ar
     8     7     1    1
     9    14     1    1
    10    14    15    1
    11     1     2    1
    12     3     2    2
    13     2     4    1
    14    15    18    1
    15    15    16   am
    16    17    16    2
    17    16    19    1
    18    24    21    1
    19     4     5    1
    20    20    19    1
    21    20    21    1
    22     5     6    1
    23    21    23    1
    24    21    22    1
