@<TRIPOS>MOLECULE
ZINC42322921_replica-1.pdb
 21 22 0 0 0
SMALL
GASTEIGER

@<TRIPOS>ATOM
      1  N1         8.0030   35.0830   57.0110 N.3     0  <0>0       -0.2909
      2  H12        8.0990   34.1670   56.5970 H       0  <0>0        0.1238
      3  C4         7.3000   36.0000   56.1030 C.3     0  <0>0        0.0831
      4  C3         7.1540   37.3670   56.7720 C.3     0  <0>0        0.0208
      5  C2         8.5110   38.0720   56.7970 C.3     0  <0>0        0.0017
      6  C1         8.6290   38.9070   58.0740 C.3     0  <0>0        0.0001
      7  C5         5.9360   35.4450   55.7870 C.ar    0  <0>0        0.0215
      8  S1         5.4930   33.8240   55.1800 S.2     0  <0>0       -0.0895
      9  C8         3.7240   34.0580   55.1070 C.ar    0  <0>0        0.0352
     10  C7         3.5920   35.3370   55.5370 C.ar    0  <0>0        0.0072
     11  C6         4.7250   36.0480   55.8860 C.ar    0  <0>0        0.0040
     12  C9         7.3240   35.0040   58.3100 C.3     0  <0>0        0.0975
     13  C10        8.2460   35.5050   59.3910 C.ar    0  <0>0        0.0161
     14  C15        7.7400   36.2460   60.4430 C.ar    0  <0>0        0.1402
     15  C14        8.5850   36.7030   61.4380 C.ar    0  <0>0        0.0238
     16  C13        9.9370   36.4260   61.3750 C.ar    0  <0>0        0.0017
     17  C12       10.4450   35.6900   60.3210 C.ar    0  <0>0       -0.0002
     18  C11        9.5990   35.2300   59.3290 C.ar    0  <0>0       -0.0013
     19  N2         6.2910   36.5460   60.5070 N.pl3   0  <0>0        0.0574
     20  O1         5.8790   37.6200   60.1320 O.2     0  <0>0       -0.1261
     21  O2         5.5210   35.7190   60.9340 O.2     0  <0>0       -0.1261
@<TRIPOS>BOND
     1     9     8   ar
     2     9    10   ar
     3     8     7   ar
     4    10    11   ar
     5     7    11   ar
     6     7     3    1
     7     3     4    1
     8     3     1    1
     9     2     1    1
    10     4     5    1
    11     5     6    1
    12     1    12    1
    13    12    13    1
    14    18    13   ar
    15    18    17   ar
    16    13    14   ar
    17    20    19    2
    18    17    16   ar
    19    14    19    1
    20    14    15   ar
    21    19    21    2
    22    16    15   ar
