@<TRIPOS>MOLECULE
ZINC31809217_replica-1.pdb
 27 30 0 0 0
SMALL
GASTEIGER

@<TRIPOS>ATOM
      1  C10       -0.7940   29.5330   56.9170 C.ar    0  <0>0        0.1518
      2  C11       -1.1510   29.0210   58.1870 C.ar    0  <0>0        0.0152
      3  C12       -0.5000   29.7870   59.0890 C.ar    0  <0>0        0.0582
      4  N2         0.2100   30.7110   58.3880 N.ar    0  <0>0       -0.2317
      5  N3         0.0210   30.5500   57.1270 N.ar    0  <0>0       -0.1610
      6  C19       -0.8140   29.3200   60.4920 C.3     0  <0>0        0.0459
      7  C20       -1.4030   27.9020   60.3200 C.3     0  <0>0        0.0111
      8  C21       -1.9680   27.9610   58.8840 C.3     0  <0>0        0.0297
      9  C9        -1.2520   29.0320   55.6070 C.2     0  <0>0        0.2687
     10  N1        -0.3530   28.7140   54.6560 N.am    0  <0>0       -0.2794
     11  H10        0.7160   28.9140   54.8200 H       0  <0>0        0.1552
     12  O1        -2.4410   28.9050   55.3870 O.2     0  <0>0       -0.2681
     13  C6        -0.7790   28.1300   53.4580 C.ar    0  <0>0        0.0462
     14  C5        -1.5530   28.8590   52.5650 C.ar    0  <0>0        0.0143
     15  C4        -1.9710   28.2790   51.3830 C.ar    0  <0>0        0.0009
     16  C3        -1.6210   26.9740   51.0890 C.ar    0  <0>0       -0.0045
     17  C2        -0.8500   26.2450   51.9770 C.ar    0  <0>0       -0.0246
     18  C1        -0.4710   24.8230   51.6520 C.3     0  <0>0        0.0307
     19  C7        -0.4240   26.8210   53.1570 C.ar    0  <0>0       -0.0123
     20  C8         0.4210   26.0270   54.1210 C.3     0  <0>0        0.0320
     21  C13        1.0250   31.6990   58.9580 C.ar    0  <0>0        0.1097
     22  C18        0.6670   33.0400   58.8600 C.ar    0  <0>0        0.1576
     23  C17        1.4700   34.0110   59.4280 C.ar    0  <0>0        0.0312
     24  F1        -0.4680   33.3920   58.2160 F       0  <0>0       -0.2026
     25  C16        2.6310   33.6500   60.0880 C.ar    0  <0>0        0.0024
     26  C15        2.9910   32.3190   60.1820 C.ar    0  <0>0        0.0017
     27  C14        2.1940   31.3430   59.6160 C.ar    0  <0>0        0.0214
@<TRIPOS>BOND
     1    16    15   ar
     2    16    17   ar
     3    15    14   ar
     4    18    17    1
     5    17    19   ar
     6    14    13   ar
     7    19    13   ar
     8    19    20    1
     9    13    10    1
    10    10    11    1
    11    10     9   am
    12    12     9    2
    13     9     1    1
    14     1     5   ar
    15     1     2   ar
    16     5     4   ar
    17     2     8    1
    18     2     3   ar
    19    24    22    1
    20     4    21    1
    21     4     3   ar
    22    22    21   ar
    23    22    23   ar
    24     8     7    1
    25    21    27   ar
    26     3     6    1
    27    23    25   ar
    28    27    26   ar
    29    25    26   ar
    30     7     6    1
