@<TRIPOS>MOLECULE
ZINC37185567_replica-1.pdb
 19 20 0 0 0
SMALL
GASTEIGER

@<TRIPOS>ATOM
      1  N1         6.7660   35.6440   57.5120 N.pl3   0  <0>0       -0.3290
      2  H12        7.1970   34.7990   57.3100 H       0  <0>0        0.1471
      3  C4         7.5750   36.8100   57.8770 C.3     0  <0>0        0.0979
      4  C2         8.2550   37.3710   56.6250 C.3     0  <0>0        0.0226
      5  C1         8.3170   36.2840   55.5500 C.3     0  <0>0        0.0021
      6  C3         7.4510   38.5630   56.1000 C.3     0  <0>0        0.0021
      7  C5         8.6250   36.3990   58.8760 C.ar    0  <0>0        0.0250
      8  S1         9.1420   37.2280   60.3710 S.2     0  <0>0       -0.0892
      9  C8        10.3860   36.0580   60.8900 C.ar    0  <0>0        0.0352
     10  C7        10.3310   35.1330   59.9010 C.ar    0  <0>0        0.0072
     11  C6         9.4290   35.3070   58.8700 C.ar    0  <0>0        0.0043
     12  C9         5.3710   35.7510   57.4540 C.ar    0  <0>0        0.0645
     13  C13        4.6110   35.6570   58.6090 C.ar    0  <0>0        0.1163
     14  N2         3.2960   35.7610   58.5610 N.ar    0  <0>0       -0.2088
     15  C12        2.6540   35.9460   57.4210 C.ar    0  <0>0        0.2251
     16  C11        3.3500   36.0440   56.2220 C.ar    0  <0>0        0.0590
     17  C10        4.7290   35.9450   56.2320 C.ar    0  <0>0        0.0207
     18  O1         1.3000   36.0410   57.4210 O.3     0  <0>0       -0.4561
     19  C14        0.5740   34.9570   58.0040 C.3     0  <0>0        0.2542
@<TRIPOS>BOND
     1     5     4    1
     2     6     4    1
     3    16    17   ar
     4    16    15   ar
     5    17    12   ar
     6     4     3    1
     7     2     1    1
     8    18    15    1
     9    18    19    1
    10    15    14   ar
    11    12     1    1
    12    12    13   ar
    13     1     3    1
    14     3     7    1
    15    14    13   ar
    16    11     7   ar
    17    11    10   ar
    18     7     8   ar
    19    10     9   ar
    20     8     9   ar
