@<TRIPOS>MOLECULE
ZINC66979181_replica-1.pdb
 27 28 0 0 0
SMALL
GASTEIGER

@<TRIPOS>ATOM
      1  C8        -0.4090   31.8710   56.7470 C.3     0  <0>0        0.0689
      2  C9         0.5910   31.3110   55.7310 C.3     0  <0>0       -0.0032
      3  C10       -0.1160   31.1030   54.3890 C.3     0  <0>0       -0.0752
      4  N3        -1.2250   30.1570   54.5590 N.4     0  <0>0        0.3897
      5  C11       -2.2230   30.7180   55.4780 C.3     0  <0>0       -0.0752
      6  C12       -1.5970   30.9110   56.8610 C.3     0  <0>0       -0.0032
      7  H26       -0.8720   29.2900   54.9370 H       0  <0>0       -0.0792
      8  N2         0.2420   32.0010   58.0530 N.am    0  <0>0       -0.2905
      9  C7         0.8770   33.1450   58.3780 C.2     0  <0>0        0.3044
     10  N1         1.4760   33.2650   59.5790 N.am    0  <0>0       -0.2560
     11  O1         0.9090   34.0680   57.5880 O.2     0  <0>0       -0.2526
     12  H11        0.2170   31.2650   58.6840 H       0  <0>0        0.1509
     13  C3         1.4370   32.1520   60.5320 C.3     0  <0>0        0.1217
     14  C2         0.2200   32.2860   61.4110 C.2     0  <0>0       -0.0046
     15  C1         0.3380   32.7740   62.6220 C.2     0  <0>0       -0.0031
     16  C4         2.1660   34.5080   59.9340 C.3     0  <0>0        0.1217
     17  C5         3.6440   34.3510   59.6840 C.2     0  <0>0       -0.0046
     18  C6         4.2890   35.2490   58.9810 C.2     0  <0>0       -0.0031
     19  C13       -1.8520   29.9000   53.2550 C.3     0  <0>0       -0.0499
     20  C14       -1.4730   28.5210   52.7790 C.ar    0  <0>0       -0.0423
     21  C19       -0.7310   27.6890   53.5940 C.ar    0  <0>0        0.0059
     22  C18       -0.3870   26.4200   53.1590 C.ar    0  <0>0        0.0678
     23  C17       -0.7810   25.9910   51.9030 C.ar    0  <0>0        0.0682
     24 Cl          0.5390   25.3710   54.1850 Cl      0  <0>0       -0.0814
     25  C16       -1.5200   26.8280   51.0860 C.ar    0  <0>0        0.0119
     26 Cl         -0.3460   24.4020   51.3540 Cl      0  <0>0       -0.0814
     27  C15       -1.8650   28.0920   51.5250 C.ar    0  <0>0       -0.0054
@<TRIPOS>BOND
     1    25    27   ar
     2    25    23   ar
     3    26    23    1
     4    27    20   ar
     5    23    22   ar
     6    20    19    1
     7    20    21   ar
     8    22    21   ar
     9    22    24    1
    10    19     4    1
    11     3     4    1
    12     3     2    1
    13     4     7    1
    14     4     5    1
    15     5     6    1
    16     2     1    1
    17     1     6    1
    18     1     8    1
    19    11     9    2
    20     8     9   am
    21     8    12    1
    22     9    10   am
    23    18    17    2
    24    10    16    1
    25    10    13    1
    26    17    16    1
    27    13    14    1
    28    14    15    2
