@<TRIPOS>MOLECULE
ZINC66335528_replica-1.pdb
 23 23 0 0 0
SMALL
GASTEIGER

@<TRIPOS>ATOM
      1  C9        -1.1930   29.6400   56.2680 C.3     0  <0>0        0.0807
      2  C10       -2.3610   29.0460   57.0570 C.3     0  <0>0        0.0218
      3  C8        -1.3430   31.1610   56.2000 C.3     0  <0>0        0.1045
      4  C7        -0.1770   31.8130   56.8970 C.2     0  <0>0        0.2241
      5  N1         0.3020   32.9910   56.4510 N.am    0  <0>0       -0.3059
      6  H15       -0.1040   33.4180   55.6810 H       0  <0>0        0.1494
      7  O1         0.3310   31.2770   57.8600 O.2     0  <0>0       -0.2750
      8  C3         1.4370   33.6240   57.1280 C.3     0  <0>0        0.0715
      9  C2         2.6680   33.5690   56.2210 C.3     0  <0>0        0.0196
     10  C1         3.7040   32.6180   56.8250 C.3     0  <0>0        0.0017
     11  C4         1.0960   35.0830   57.4390 C.3     0  <0>0        0.0180
     12  C5         1.1530   35.3080   58.9510 C.3     0  <0>0        0.0017
     13  C6         2.1060   36.0010   56.7480 C.3     0  <0>0        0.0017
     14  N2        -1.1910   29.0900   54.9110 N.am    0  <0>0       -0.3055
     15  C11       -0.2840   28.1530   54.5640 C.2     0  <0>0        0.2219
     16  O2         0.5280   27.7680   55.3770 O.2     0  <0>0       -0.2751
     17  H21       -1.8410   29.3990   54.2610 H       0  <0>0        0.1494
     18  C12       -0.2820   27.5870   53.1680 C.3     0  <0>0        0.0765
     19  C17       -0.3490   26.0600   53.2370 C.3     0  <0>0        0.0091
     20  C16       -0.3470   25.4840   51.8190 C.3     0  <0>0        0.0005
     21  C15       -1.5600   26.0160   51.0510 C.3     0  <0>0        0.0000
     22  C14       -1.4930   27.5420   50.9830 C.3     0  <0>0        0.0005
     23  C13       -1.4950   28.1180   52.4000 C.3     0  <0>0        0.0091
@<TRIPOS>BOND
     1    22    21    1
     2    22    23    1
     3    21    20    1
     4    20    19    1
     5    23    18    1
     6    18    19    1
     7    18    15    1
     8    17    14    1
     9    15    14   am
    10    15    16    2
    11    14     1    1
    12     6     5    1
    13     3     1    1
    14     3     4    1
    15     9    10    1
    16     9     8    1
    17     1     2    1
    18     5     4   am
    19     5     8    1
    20    13    11    1
    21     4     7    2
    22     8    11    1
    23    11    12    1
