@<TRIPOS>MOLECULE
ZINC61640188_replica-1.pdb
 20 21 0 0 0
SMALL
GASTEIGER

@<TRIPOS>ATOM
      1  C10        5.5420   34.9940   57.8650 C.2     0  <0>0        0.1501
      2  C11        4.7510   35.4390   58.9060 C.2     0  <0>0        0.0817
      3  C12        3.4660   35.8950   58.6380 C.2     0  <0>0       -0.0035
      4  C13        3.0220   35.8850   57.3280 C.3     0  <0>0        0.1014
      5  C14        3.8720   35.4230   56.3290 C.2     0  <0>0        0.1610
      6  N1         5.0930   35.0020   56.6240 N.2     0  <0>0       -0.3923
      7 Cl          5.3570   35.4300   60.5330 Cl      0  <0>0       -0.0802
      8  C9         6.9370   34.4990   58.1480 C.3     0  <0>0        0.2013
      9  O1         7.8820   35.3150   57.4540 O.3     0  <0>0       -0.3487
     10  C8         8.8210   35.9720   58.3080 C.3     0  <0>0        0.1157
     11  C3         8.1230   37.1140   59.0500 C.3     0  <0>0        0.0272
     12  C4         9.1280   37.8170   59.9640 C.3     0  <0>0        0.0024
     13  C5         9.6840   36.8150   60.9780 C.3     0  <0>0        0.0002
     14  C6        10.3820   35.6720   60.2360 C.3     0  <0>0        0.0025
     15  C7         9.3770   34.9700   59.3220 C.3     0  <0>0        0.0296
     16  C2         7.5680   38.1160   58.0360 C.3     0  <0>0        0.0024
     17  C1         8.7090   38.6450   57.1650 C.3     0  <0>0        0.0001
     18  N2         3.4390   35.4070   55.0070 N.pl3   0  <0>0       -0.3100
     19  C15        4.3040   34.8560   53.9600 C.3     0  <0>0        0.1102
     20  H20        2.5660   35.7600   54.7790 H       0  <0>0        0.1489
@<TRIPOS>BOND
     1    19    18    1
     2    20    18    1
     3    18     5    1
     4     5     6    2
     5     5     4    1
     6     6     1    2
     7    17    16    1
     8     4     3    1
     9     9     8    1
    10     9    10    1
    11     1     8    1
    12     1     2    1
    13    16    11    1
    14    10    11    1
    15    10    15    1
    16     3     2    2
    17     2     7    1
    18    11    12    1
    19    15    14    1
    20    12    13    1
    21    14    13    1
