@<TRIPOS>MOLECULE
ZINC03457810_replica-1.pdb
 30 32 0 0 0
SMALL
GASTEIGER

@<TRIPOS>ATOM
      1  C4         6.4260   33.7970   58.2550 C.ar    0  <0>0        0.1938
      2  N2         5.9030   33.2390   59.3240 N.ar    0  <0>0       -0.1221
      3  N3         6.7920   33.1320   60.2460 N.ar    0  <0>0       -0.1282
      4  C5         7.9370   33.6140   59.8220 C.ar    0  <0>0        0.1670
      5  N4         7.7390   34.0490   58.5330 N.ar    0  <0>0       -0.2862
      6  C13        9.2020   33.6720   60.5860 C.ar    0  <0>0        0.0359
      7  C18        9.6740   32.5380   61.2480 C.ar    0  <0>0        0.0027
      8  C17       10.8550   32.5980   61.9590 C.ar    0  <0>0       -0.0042
      9  C16       11.5710   33.7810   62.0140 C.ar    0  <0>0       -0.0228
     10  C15       11.1100   34.9090   61.3590 C.ar    0  <0>0       -0.0042
     11  C14        9.9330   34.8600   60.6410 C.ar    0  <0>0        0.0027
     12  C19       12.8610   33.8400   62.7920 C.3     0  <0>0        0.0189
     13  C20       12.7450   34.8920   63.8950 C.3     0  <0>0        0.0044
     14  C21       13.1400   32.4710   63.4180 C.3     0  <0>0        0.0044
     15  C22       14.0090   34.2120   61.8500 C.3     0  <0>0        0.0044
     16  C6         8.7300   34.6610   57.6420 C.3     0  <0>0        0.1362
     17  C7         8.4890   36.1460   57.5680 C.ar    0  <0>0        0.0005
     18  C12        8.5990   36.9220   58.7060 C.ar    0  <0>0       -0.0024
     19  C11        8.3780   38.2840   58.6380 C.ar    0  <0>0       -0.0003
     20  C10        8.0490   38.8720   57.4310 C.ar    0  <0>0       -0.0000
     21  C9         7.9400   38.0960   56.2920 C.ar    0  <0>0       -0.0003
     22  C8         8.1650   36.7340   56.3590 C.ar    0  <0>0       -0.0024
     23  S1         5.5900   34.1480   56.7440 S.3     0  <0>0       -0.0672
     24  C2         4.2280   35.1650   57.3670 C.3     0  <0>0        0.1306
     25  C1         4.7890   36.2840   58.2470 C.3     0  <0>0        0.0218
     26  C3         3.4790   35.7660   56.2050 C.2     0  <0>0        0.2295
     27  O1         3.9870   36.6520   55.5500 O.2     0  <0>0       -0.2744
     28  N1         2.2460   35.3190   55.8960 N.am    0  <0>0       -0.3281
     29  H5         1.8400   34.6120   56.4210 H       0  <0>0        0.1450
     30  H6         1.7620   35.7100   55.1510 H       0  <0>0        0.1450
@<TRIPOS>BOND
     1    30    28    1
     2    27    26    2
     3    28    26   am
     4    28    29    1
     5    26    24    1
     6    21    22   ar
     7    21    20   ar
     8    22    17   ar
     9    23    24    1
    10    23     1    1
    11    24    25    1
    12    20    19   ar
    13    17    16    1
    14    17    18   ar
    15    16     5    1
    16     1     5   ar
    17     1     2   ar
    18     5     4   ar
    19    19    18   ar
    20     2     3   ar
    21     4     3   ar
    22     4     6    1
    23     6    11   ar
    24     6     7   ar
    25    11    10   ar
    26     7     8   ar
    27    10     9   ar
    28    15    12    1
    29     8     9   ar
    30     9    12    1
    31    12    14    1
    32    12    13    1
