@<TRIPOS>MOLECULE
ZINC45207886_replica-1.pdb
 19 19 0 0 0
SMALL
GASTEIGER

@<TRIPOS>ATOM
      1  C9        -0.3520   27.3020   57.5860 C.3     0  <0>0        0.1499
      2  C10       -1.8560   27.0460   57.7080 C.3     0  <0>0        0.0340
      3  C11        0.3430   26.6940   58.7310 C.1     0  <0>0        0.0885
      4  N1         0.8800   26.2250   59.6160 N.1     0  <0>0       -0.1945
      5  C8         0.1670   26.6820   56.2870 C.3     0  <0>0        0.1707
      6  O1         0.2200   27.6830   55.2690 O.3     0  <0>0       -0.3538
      7  C6        -0.6600   27.4400   54.1690 C.3     0  <0>0        0.1153
      8  C5        -0.8400   28.7300   53.3660 C.3     0  <0>0        0.0272
      9  C4        -1.7820   28.4700   52.1890 C.3     0  <0>0        0.0024
     10  C3        -1.1840   27.3880   51.2870 C.3     0  <0>0        0.0002
     11  C2        -1.0040   26.0980   52.0910 C.3     0  <0>0        0.0024
     12  C1        -0.4070   25.0150   51.1890 C.3     0  <0>0        0.0001
     13  C7        -0.0620   26.3580   53.2670 C.3     0  <0>0        0.0295
     14  C13       -1.4370   29.8130   54.2670 C.3     0  <0>0        0.0023
     15  C14       -0.4510   30.9750   54.3900 C.3     0  <0>0        0.0001
     16  C15       -2.7470   30.3180   53.6570 C.3     0  <0>0        0.0001
     17  N2        -0.1030   28.7500   57.5730 N.3     0  <0>0       -0.2853
     18  C12       -0.7150   29.4010   58.7380 C.3     0  <0>0        0.0866
     19  H18        0.8870   28.9450   57.5270 H       0  <0>0        0.1242
@<TRIPOS>BOND
     1    12    11    1
     2    10    11    1
     3    10     9    1
     4    11    13    1
     5     9     8    1
     6    13     7    1
     7     8     7    1
     8     8    14    1
     9    16    14    1
    10     7     6    1
    11    14    15    1
    12     6     5    1
    13     5     1    1
    14    19    17    1
    15    17     1    1
    16    17    18    1
    17     1     2    1
    18     1     3    1
    19     3     4    3
