@<TRIPOS>MOLECULE
ZINC20761701_replica-1.pdb
 25 27 0 0 0
SMALL
GASTEIGER

@<TRIPOS>ATOM
      1  N2         2.0380   32.6360   56.2030 N.2     0  <0>0       -0.1803
      2  C9         1.0930   31.8410   56.6100 C.2     0  <0>0        0.1545
      3  C10        0.3170   31.0670   55.6380 C.ar    0  <0>0        0.1660
      4  O2         0.5850   29.8070   55.2380 O.2     0  <0>0       -0.4519
      5  C13       -0.3380   29.4220   54.3340 C.ar    0  <0>0        0.1454
      6  C12       -1.2200   30.4450   54.1540 C.ar    0  <0>0        0.0407
      7  C11       -0.8040   31.4960   54.9840 C.ar    0  <0>0        0.0423
      8  C14       -0.3880   28.1100   53.6570 C.ar    0  <0>0        0.0346
      9  C19        0.2320   26.9990   54.2340 C.ar    0  <0>0        0.0039
     10  C18        0.1820   25.7770   53.5980 C.ar    0  <0>0        0.0115
     11  C17       -0.4830   25.6500   52.3890 C.ar    0  <0>0        0.0577
     12  C16       -1.0990   26.7470   51.8120 C.ar    0  <0>0        0.0115
     13 Cl         -0.5430   24.1070   51.5940 Cl      0  <0>0       -0.0822
     14  C15       -1.0600   27.9740   52.4410 C.ar    0  <0>0        0.0039
     15  N1         2.7800   33.3760   57.1340 N.pl3   0  <0>0       -0.2525
     16  H10        3.4070   32.9270   57.7230 H       0  <0>0        0.1692
     17  C8         2.6120   34.8290   57.2160 C.3     0  <0>0        0.1359
     18  C7         3.9640   35.4890   57.2840 C.ar    0  <0>0        0.0329
     19  C2         4.6550   35.7780   56.1170 C.ar    0  <0>0        0.1363
     20  C3         5.9010   36.3860   56.1820 C.ar    0  <0>0        0.0366
     21  C4         6.4490   36.7020   57.4090 C.ar    0  <0>0        0.0031
     22  C5         5.7590   36.4130   58.5720 C.ar    0  <0>0       -0.0001
     23  C6         4.5160   35.8120   58.5090 C.ar    0  <0>0        0.0004
     24  O1         4.1130   35.4660   54.9100 O.3     0  <0>0       -0.4717
     25  C1         4.7780   34.4630   54.1390 C.3     0  <0>0        0.2525
@<TRIPOS>BOND
     1    13    11    1
     2    12    11   ar
     3    12    14   ar
     4    11    10   ar
     5    14     8   ar
     6    10     9   ar
     7     8     9   ar
     8     8     5    1
     9    25    24    1
    10     6     5   ar
    11     6     7   ar
    12     5     4   ar
    13    24    19    1
    14     7     3   ar
    15     4     3   ar
    16     3     2    1
    17    19    20   ar
    18    19    18   ar
    19    20    21   ar
    20     1     2    2
    21     1    15    1
    22    15    17    1
    23    15    16    1
    24    17    18    1
    25    18    23   ar
    26    21    22   ar
    27    23    22   ar
