@<TRIPOS>MOLECULE
ZINC37103532_replica-1.pdb
 19 20 0 0 0
SMALL
GASTEIGER

@<TRIPOS>ATOM
      1  N1        11.2540   34.9850   60.9740 N.pl3   0  <0>0       -0.3340
      2  H16       11.3390   34.9770   60.0080 H       0  <0>0        0.1468
      3  C2        10.3860   35.9690   61.6250 C.3     0  <0>0        0.0714
      4  C1        11.2020   36.7810   62.6320 C.3     0  <0>0        0.0212
      5  C3         9.7970   36.9080   60.5690 C.3     0  <0>0        0.0467
      6  C4         8.4870   36.3210   60.0390 C.3     0  <0>0        0.0946
      7  C5         7.3140   37.1780   60.5190 C.3     0  <0>0        0.0297
      8  C6         8.5180   36.3080   58.5090 C.3     0  <0>0        0.0297
      9  O1         8.3320   34.9860   60.5240 O.3     0  <0>0       -0.3558
     10  C7         8.0010   34.0350   59.5110 C.3     0  <0>0        0.1739
     11  C8        11.9600   34.0550   61.7460 C.ar    0  <0>0        0.0445
     12  C13       11.3000   32.9690   62.3080 C.ar    0  <0>0        0.0131
     13  C12       12.0010   32.0540   63.0610 C.ar    0  <0>0        0.0167
     14  C11       13.3640   32.2110   63.2850 C.ar    0  <0>0        0.1347
     15  C14       11.5780   30.7830   63.7700 C.3     0  <0>0        0.0768
     16  C10       14.0200   33.3020   62.7210 C.ar    0  <0>0        0.0378
     17  O2        13.8520   31.2100   64.0710 O.3     0  <0>0       -0.4754
     18  C9        13.3230   34.2150   61.9580 C.ar    0  <0>0        0.0174
     19  C15       12.9390   30.1000   64.0460 C.3     0  <0>0        0.2102
@<TRIPOS>BOND
     1     8     6    1
     2    10     9    1
     3     2     1    1
     4     6     7    1
     5     6     9    1
     6     6     5    1
     7     5     3    1
     8     1     3    1
     9     1    11    1
    10     3     4    1
    11    11    18   ar
    12    11    12   ar
    13    18    16   ar
    14    12    13   ar
    15    16    14   ar
    16    13    14   ar
    17    13    15    1
    18    14    17    1
    19    15    19    1
    20    19    17    1
