@<TRIPOS>MOLECULE
ZINC40945518_replica-1.pdb
 25 27 0 0 0
SMALL
GASTEIGER

@<TRIPOS>ATOM
      1  S1        -0.5110   30.6430   55.7800 S.O2    0  <0>0        0.0737
      2  O2        -1.5780   30.5040   56.7080 O.2     0  <0>0       -0.1499
      3  O3        -0.4730   31.6820   54.8110 O.2     0  <0>0       -0.1499
      4  N1         0.8770   30.7780   56.6730 N.pl3   0  <0>0       -0.2121
      5  H9         1.7280   30.5110   56.2920 H       0  <0>0        0.1738
      6  C4         0.8220   31.2760   57.9810 C.ar    0  <0>0        0.0983
      7  C3         0.7810   30.4030   59.0570 C.ar    0  <0>0        0.0155
      8  C2         0.7280   30.8970   60.3470 C.ar    0  <0>0       -0.0098
      9  C1         0.6840   29.9460   61.5150 C.3     0  <0>0        0.0320
     10  C7         0.7070   32.2620   60.5680 C.ar    0  <0>0        0.0568
     11  C6         0.7520   33.1400   59.4980 C.ar    0  <0>0        0.0493
     12 Cl          0.6310   32.8760   62.1900 Cl      0  <0>0       -0.0825
     13  C5         0.8070   32.6520   58.2040 C.ar    0  <0>0        0.1540
     14  O1         0.8460   33.5130   57.1520 O.3     0  <0>0       -0.4701
     15  C8         0.6480   34.8990   57.4400 C.3     0  <0>0        0.2525
     16  C9        -0.4130   29.1230   54.8930 C.ar    0  <0>0        0.1252
     17  C18       -1.0150   29.0160   53.6780 C.ar    0  <0>0        0.0202
     18  C17       -0.9330   27.8070   52.9660 C.ar    0  <0>0        0.0013
     19  C12       -0.2330   26.7120   53.5320 C.ar    0  <0>0        0.0001
     20  C16       -1.5370   27.6610   51.7060 C.ar    0  <0>0        0.0000
     21  C11        0.3700   26.8590   54.7930 C.ar    0  <0>0        0.0014
     22  C13       -0.1570   25.5020   52.8230 C.ar    0  <0>0        0.0000
     23  C10        0.2750   28.0470   55.4520 C.ar    0  <0>0        0.0202
     24  C14       -0.7550   25.3960   51.6050 C.ar    0  <0>0        0.0000
     25  C15       -1.4420   26.4720   51.0480 C.ar    0  <0>0        0.0000
@<TRIPOS>BOND
     1    25    24   ar
     2    25    20   ar
     3    24    22   ar
     4    20    18   ar
     5    22    19   ar
     6    18    19   ar
     7    18    17   ar
     8    19    21   ar
     9    17    16   ar
    10    21    23   ar
    11     3     1    2
    12    16    23   ar
    13    16     1    1
    14     1     4    1
    15     1     2    2
    16     5     4    1
    17     4     6    1
    18    14    15    1
    19    14    13    1
    20     6    13   ar
    21     6     7   ar
    22    13    11   ar
    23     7     8   ar
    24    11    10   ar
    25     8    10   ar
    26     8     9    1
    27    10    12    1
