@<TRIPOS>MOLECULE
ZINC65740730_replica-1.pdb
 23 24 0 0 0
SMALL
GASTEIGER

@<TRIPOS>ATOM
      1  C10        9.9080   34.4830   59.5690 C.3     0  <0>0        0.1334
      2  C11        9.1870   34.8630   58.2900 C.3     0  <0>0        0.0361
      3  C12        8.5470   35.9670   58.5050 C.3     0  <0>0        0.0277
      4  C13        8.7760   36.4000   59.9490 C.3     0  <0>0        0.0931
      5  O3         9.9530   35.6890   60.3620 O.3     0  <0>0       -0.3569
      6  C14        9.0160   37.9090   59.8940 C.3     0  <0>0        0.0272
      7  C15        7.7830   38.6240   59.3560 C.3     0  <0>0        0.0024
      8  C16        6.8920   37.7580   58.4820 C.3     0  <0>0        0.0002
      9  C17        7.7050   36.8190   57.5810 C.3     0  <0>0        0.0023
     10  C18        8.6070   37.6330   56.6500 C.3     0  <0>0        0.0001
     11  C19        6.7640   35.9330   56.7620 C.3     0  <0>0        0.0001
     12  C20        7.5790   36.0480   60.8330 C.3     0  <0>0        0.0296
     13  C8         9.1440   33.4080   60.2980 C.2     0  <0>0       -0.0173
     14  C7         9.6580   32.8530   61.4000 C.2     0  <0>0       -0.0062
     15  C9         7.8000   32.9580   59.7840 C.3     0  <0>0        0.0288
     16  C6        10.9940   33.1390   61.7800 C.2     0  <0>0       -0.0009
     17  C5        11.6070   32.3810   62.7250 C.2     0  <0>0       -0.0041
     18  C2        12.9340   32.6630   63.1020 C.2     0  <0>0       -0.0153
     19  C1        13.5180   34.0270   62.8370 C.3     0  <0>0        0.0312
     20  C3        13.6880   31.7050   63.7080 C.2     0  <0>0        0.0819
     21  C4        13.1120   30.4660   64.0500 C.2     0  <0>0        0.3876
     22  O1        12.7880   30.2100   65.3170 O.co2   0  <0>0       -0.2406
     23  O2        12.8910   29.5500   63.1080 O.co2   0  <0>0       -0.2406
@<TRIPOS>BOND
     1    10     9    1
     2    11     9    1
     3     9     8    1
     4     9     3    1
     5     2     3    1
     6     2     1    1
     7     8     7    1
     8     3     4    1
     9     7     6    1
    10     1    13    1
    11     1     5    1
    12    15    13    1
    13     6     4    1
    14     4     5    1
    15     4    12    1
    16    13    14    2
    17    14    16    1
    18    16    17    2
    19    17    18    1
    20    19    18    1
    21    18    20    2
    22    23    21   ar
    23    20    21    1
    24    21    22   ar
