@<TRIPOS>MOLECULE
ZINC49954410_replica-1.pdb
 18 18 0 0 0
SMALL
GASTEIGER

@<TRIPOS>ATOM
      1  C6        -0.3640   29.8380   56.0530 C.3     0  <0>0        0.0986
      2  C4        -1.7390   29.9810   56.7110 C.3     0  <0>0        0.0204
      3  C5        -2.5750   30.9960   55.9290 C.3     0  <0>0        0.0018
      4  C3        -2.4480   28.6260   56.7090 C.3     0  <0>0        0.0017
      5  C2        -2.1680   27.9020   58.0280 C.3     0  <0>0        0.0001
      6  C1        -1.3570   26.6340   57.7510 C.3     0  <0>0        0.0000
      7  C7         0.5320   31.0000   56.4880 C.3     0  <0>0        0.1565
      8  O1         0.9720   31.7200   55.3350 O.3     0  <0>0       -0.3802
      9  H15        0.3430   31.7080   54.6000 H       0  <0>0        0.2105
     10  N1        -0.5160   29.8570   54.5960 N.pl3   0  <0>0       -0.3320
     11  H16       -0.6030   30.7020   54.1290 H       0  <0>0        0.1468
     12  C8        -0.5330   28.6560   53.8810 C.ar    0  <0>0        0.0447
     13  C13       -1.2490   28.5640   52.6950 C.ar    0  <0>0        0.0148
     14  C12       -1.2600   27.3790   51.9860 C.ar    0  <0>0        0.0080
     15  C11       -0.5680   26.2800   52.4640 C.ar    0  <0>0        0.0346
     16  C10        0.1420   26.3670   53.6490 C.ar    0  <0>0        0.0080
     17 Br         -0.5910   24.6560   51.4950 Br      0  <0>0       -0.0490
     18  C9         0.1610   27.5510   54.3580 C.ar    0  <0>0        0.0148
@<TRIPOS>BOND
     1    17    15    1
     2    14    15   ar
     3    14    13   ar
     4    15    16   ar
     5    13    12   ar
     6    16    18   ar
     7    12    18   ar
     8    12    10    1
     9    11    10    1
    10    10     1    1
    11     9     8    1
    12     8     7    1
    13     3     2    1
    14     1     7    1
    15     1     2    1
    16     4     2    1
    17     4     5    1
    18     6     5    1
