@<TRIPOS>MOLECULE
ZINC59010519_replica-1.pdb
 26 28 0 0 0
SMALL
GASTEIGER

@<TRIPOS>ATOM
      1  C1         0.6280   26.9950   55.4710 C.3     0  <0>0        0.0338
      2  C2        -0.0280   28.1720   54.7450 C.3     0  <0>0        0.1488
      3  C3        -1.0820   28.8190   55.6210 C.2     0  <0>0        0.2527
      4  O1        -2.0870   28.3020   56.0600 O.2     0  <0>0       -0.2723
      5  N1        -0.6680   30.0870   55.8120 N.am    0  <0>0       -0.2084
      6  C4         0.4880   30.3300   55.1840 C.2     0  <0>0        0.3105
      7  O2         1.0580   31.4020   55.2080 O.2     0  <0>0       -0.2521
      8  N2         0.9480   29.2520   54.5220 N.am    0  <0>0       -0.2805
      9  H4         1.7650   29.1970   54.0000 H       0  <0>0        0.1516
     10  C12       -0.6250   27.7190   53.4380 C.ar    0  <0>0        0.0317
     11  C17       -1.4050   28.5880   52.6950 C.ar    0  <0>0        0.1382
     12  C16       -1.9500   28.1740   51.4910 C.ar    0  <0>0        0.0317
     13  F2        -1.6310   29.8430   53.1420 F       0  <0>0       -0.2044
     14  C15       -1.7230   26.8900   51.0360 C.ar    0  <0>0        0.0319
     15  C14       -0.9470   26.0180   51.7810 C.ar    0  <0>0        0.1400
     16  C13       -0.3980   26.4330   52.9820 C.ar    0  <0>0        0.0296
     17  F3        -0.7240   24.7610   51.3360 F       0  <0>0       -0.2042
     18  C5        -1.3970   31.0790   56.6070 C.3     0  <0>0        0.1291
     19  C6        -0.5640   31.4790   57.7970 C.ar    0  <0>0       -0.0012
     20  C11       -0.1680   32.7940   57.9520 C.ar    0  <0>0        0.0064
     21  C10        0.5940   33.1630   59.0470 C.ar    0  <0>0        0.0617
     22  C9         0.9670   32.2110   59.9820 C.ar    0  <0>0        0.1462
     23 Br          1.1300   34.9630   59.2630 Br      0  <0>0       -0.0467
     24  C8         0.5730   30.8940   59.8220 C.ar    0  <0>0        0.0299
     25  F1         1.7140   32.5690   61.0480 F       0  <0>0       -0.2037
     26  C7        -0.1920   30.5290   58.7300 C.ar    0  <0>0       -0.0003
@<TRIPOS>BOND
     1    14    12   ar
     2    14    15   ar
     3    17    15    1
     4    12    11   ar
     5    15    16   ar
     6    11    13    1
     7    11    10   ar
     8    16    10   ar
     9    10     2    1
    10     9     8    1
    11     8     2    1
    12     8     6   am
    13     2     1    1
    14     2     3    1
    15     6     7    2
    16     6     5   am
    17     3     5   am
    18     3     4    2
    19     5    18    1
    20    18    19    1
    21    19    20   ar
    22    19    26   ar
    23    20    21   ar
    24    26    24   ar
    25    21    23    1
    26    21    22   ar
    27    24    22   ar
    28    22    25    1
