@<TRIPOS>MOLECULE
ZINC10157172_replica-1.pdb
 25 28 0 0 0
SMALL
GASTEIGER

@<TRIPOS>ATOM
      1  C8         8.0130   36.1250   57.3900 C.ar    0  <0>0        0.0092
      2  C9         8.5660   36.4260   56.1410 C.ar    0  <0>0        0.0209
      3  C10        7.7540   36.4120   55.0240 C.ar    0  <0>0        0.1006
      4  N1         6.4690   36.1190   55.1060 N.ar    0  <0>0       -0.2255
      5  C11        5.8880   35.8250   56.2590 C.ar    0  <0>0        0.1596
      6  C12        6.6430   35.8190   57.4450 C.ar    0  <0>0        0.0930
      7  C13        5.7220   35.4610   58.5320 C.ar    0  <0>0        0.2816
      8  O1         6.0030   35.3520   59.7110 O.2     0  <0>0       -0.2651
      9  N2         4.5070   35.2770   57.9770 N.ar    0  <0>0       -0.2162
     10  N3         4.5910   35.4940   56.5980 N.ar    0  <0>0       -0.2729
     11  H1         3.8510   35.4230   55.9750 H       0  <0>0        0.1890
     12  C5         8.8460   36.1290   58.6150 C.ar    0  <0>0        0.0003
     13  C4         9.6370   35.0250   58.9280 C.ar    0  <0>0       -0.0003
     14  C3        10.4110   35.0350   60.0700 C.ar    0  <0>0       -0.0043
     15  C2        10.4020   36.1390   60.9050 C.ar    0  <0>0       -0.0218
     16  C1        11.2510   36.1440   62.1500 C.3     0  <0>0        0.0310
     17  C7         9.6190   37.2370   60.6000 C.ar    0  <0>0       -0.0043
     18  C6         8.8450   37.2400   59.4580 C.ar    0  <0>0       -0.0003
     19  C14        3.3460   34.9240   58.6710 C.ar    0  <0>0        0.0836
     20  C19        3.3030   33.7430   59.4010 C.ar    0  <0>0        0.0149
     21  C18        2.1530   33.3980   60.0850 C.ar    0  <0>0       -0.0204
     22  C17        1.0470   34.2260   60.0440 C.ar    0  <0>0       -0.0042
     23  C20        2.1050   32.1170   60.8780 C.3     0  <0>0        0.0311
     24  C16        1.0870   35.4020   59.3180 C.ar    0  <0>0        0.0012
     25  C15        2.2340   35.7560   58.6350 C.ar    0  <0>0        0.0192
@<TRIPOS>BOND
     1     3     4   ar
     2     3     2   ar
     3     4     5   ar
     4    11    10    1
     5     2     1   ar
     6     5    10   ar
     7     5     6   ar
     8    10     9   ar
     9     1     6   ar
    10     1    12    1
    11     6     7   ar
    12     9     7   ar
    13     9    19    1
    14     7     8    2
    15    12    13   ar
    16    12    18   ar
    17    25    19   ar
    18    25    24   ar
    19    19    20   ar
    20    13    14   ar
    21    24    22   ar
    22    20    21   ar
    23    18    17   ar
    24    22    21   ar
    25    14    15   ar
    26    21    23    1
    27    17    15   ar
    28    15    16    1
