@<TRIPOS>MOLECULE
ZINC13382125_replica-1.pdb
 23 24 0 0 0
SMALL
GASTEIGER

@<TRIPOS>ATOM
      1  C6        -1.0440   28.3920   56.2340 C.2     0  <0>0        0.0930
      2  N1        -0.1040   27.8760   55.5000 N.2     0  <0>0       -0.1844
      3  C5        -2.0830   29.2870   55.6080 C.3     0  <0>0        0.1057
      4  S1        -1.8310   30.9920   56.1750 S.3     0  <0>0       -0.1221
      5  C4        -0.3240   31.5220   55.3160 C.3     0  <0>0        0.1674
      6  C3         0.7730   31.7560   56.3230 C.2     0  <0>0        0.3281
      7  O2         1.8300   32.2200   55.9670 O.2     0  <0>0       -0.2491
      8  O1         0.5750   31.4490   57.6150 O.3     0  <0>0       -0.4479
      9  C2         1.0820   32.3870   58.6000 C.3     0  <0>0        0.2086
     10  C1         0.1900   33.6300   58.6260 C.3     0  <0>0        0.0513
     11  C13       -1.0930   28.1050   57.6720 C.ar    0  <0>0        0.0454
     12  S2         0.2440   28.0540   58.8550 S.2     0  <0>0       -0.0852
     13  C16       -0.7150   27.6450   60.3040 C.ar    0  <0>0        0.0355
     14  C15       -1.9750   27.5650   59.8050 C.ar    0  <0>0        0.0075
     15  C14       -2.1840   27.7980   58.4650 C.ar    0  <0>0        0.0083
     16  N2         0.0070   28.2320   54.1500 N.pl3   0  <0>0       -0.2362
     17  H10        0.3800   29.0940   53.9050 H       0  <0>0        0.1744
     18  C7        -0.4180   27.3500   53.1570 C.ar    0  <0>0        0.0650
     19  C12       -0.0410   26.0120   53.2070 C.ar    0  <0>0        0.0160
     20  C11       -0.4630   25.1410   52.2220 C.ar    0  <0>0        0.0013
     21  C10       -1.2620   25.5980   51.1880 C.ar    0  <0>0        0.0001
     22  C9        -1.6380   26.9270   51.1360 C.ar    0  <0>0        0.0013
     23  C8        -1.2200   27.8050   52.1170 C.ar    0  <0>0        0.0160
@<TRIPOS>BOND
     1    22    21   ar
     2    22    23   ar
     3    21    20   ar
     4    23    18   ar
     5    20    19   ar
     6    18    19   ar
     7    18    16    1
     8    17    16    1
     9    16     2    1
    10     5     4    1
    11     5     6    1
    12     2     1    2
    13     3     4    1
    14     3     1    1
    15     7     6    2
    16     1    11    1
    17     6     8    1
    18     8     9    1
    19    11    15   ar
    20    11    12   ar
    21    15    14   ar
    22     9    10    1
    23    12    13   ar
    24    14    13   ar
