@<TRIPOS>MOLECULE
ZINC20319772_replica-1.pdb
 29 32 0 0 0
SMALL
GASTEIGER

@<TRIPOS>ATOM
      1  C1         6.9920   37.2460   55.2380 C.ar    0  <0>0        0.0208
      2  C2         6.9340   35.8650   55.1470 C.ar    0  <0>0        0.0074
      3  C3         7.4230   35.1120   56.2190 C.ar    0  <0>0        0.0705
      4  C4         7.9440   35.7790   57.3300 C.ar    0  <0>0        0.1004
      5  N1         7.9770   37.0930   57.3710 N.ar    0  <0>0       -0.2447
      6  C5         7.5230   37.8300   56.3740 C.ar    0  <0>0        0.0986
      7  C6         8.3750   34.7070   58.3020 C.3     0  <0>0        0.1914
      8  N2         8.0710   33.4230   57.6610 N.am    0  <0>0       -0.2521
      9  C7         7.5170   33.6610   56.4590 C.2     0  <0>0        0.2519
     10  O1         7.1490   32.8020   55.6810 O.2     0  <0>0       -0.2698
     11  N3         9.8140   34.8140   58.5580 N.pl3   0  <0>0       -0.3140
     12  H10       10.5340   34.5510   57.7690 H       0  <0>0        0.1486
     13  C13       10.2710   35.2500   59.8050 C.ar    0  <0>0        0.0460
     14  C18       11.1730   34.4760   60.5240 C.ar    0  <0>0        0.0190
     15  C17       11.6230   34.9080   61.7560 C.ar    0  <0>0        0.0832
     16  C16       11.1780   36.1120   62.2730 C.ar    0  <0>0        0.0616
     17  C15       10.2790   36.8840   61.5580 C.ar    0  <0>0        0.0126
     18 Cl         11.7460   36.6530   63.8210 Cl      0  <0>0       -0.0823
     19  C14        9.8290   36.4590   60.3240 C.ar    0  <0>0        0.0152
     20  C19       12.6020   34.0700   62.5370 C.3     0  <0>0        0.4194
     21  F1        13.8970   34.3050   62.0630 F       0  <0>0       -0.1658
     22  F2        12.5320   34.4120   63.8920 F       0  <0>0       -0.1658
     23  F3        12.2860   32.7160   62.3800 F       0  <0>0       -0.1658
     24  C8         8.3240   32.1010   58.2370 C.3     0  <0>0        0.1287
     25  C9         7.3860   31.8700   59.3950 C.ar    0  <0>0        0.0273
     26  S1         5.6170   32.1000   59.4730 S.2     0  <0>0       -0.0891
     27  C12        5.3730   31.6010   61.1680 C.ar    0  <0>0        0.0352
     28  C11        6.6350   31.2920   61.5560 C.ar    0  <0>0        0.0072
     29  C10        7.6680   31.4360   60.6480 C.ar    0  <0>0        0.0044
@<TRIPOS>BOND
     1     2     1   ar
     2     2     3   ar
     3     1     6   ar
     4    10     9    2
     5     3     9    1
     6     3     4   ar
     7     6     5   ar
     8     9     8   am
     9     4     5   ar
    10     4     7    1
    11     8    24    1
    12     8     7    1
    13    12    11    1
    14    24    25    1
    15     7    11    1
    16    11    13    1
    17    25    26   ar
    18    25    29   ar
    19    26    27   ar
    20    13    19   ar
    21    13    14   ar
    22    19    17   ar
    23    14    15   ar
    24    29    28   ar
    25    27    28   ar
    26    17    16   ar
    27    15    16   ar
    28    15    20    1
    29    21    20    1
    30    16    18    1
    31    23    20    1
    32    20    22    1
