@<TRIPOS>MOLECULE
ZINC01402826_replica-1.pdb
 28 31 0 0 0
SMALL
GASTEIGER

@<TRIPOS>ATOM
      1  C7        10.4220   34.7620   61.2740 C.1     0  <0>0        0.0874
      2  N1        10.6270   36.0620   61.1090 N.2     0  <0>0       -0.1809
      3  C8         9.7070   36.8300   60.5480 C.2     0  <0>0        0.1318
      4  C9         8.5130   36.2650   60.1340 C.2     0  <0>0        0.1604
      5  C10        8.3280   34.8910   60.3160 C.2     0  <0>0        0.1625
      6  N2         9.2970   34.1790   60.8870 N.2     0  <0>0       -0.3490
      7  S1         7.2590   37.2530   59.3880 S.O2    0  <0>0        0.0314
      8  O1         6.0320   36.8770   59.9960 O.2     0  <0>0       -0.1641
      9  O2         7.7360   38.5910   59.3980 O.2     0  <0>0       -0.1641
     10  C17        7.1520   36.7680   57.6970 C.ar    0  <0>0        0.1104
     11  C22        5.9320   36.4150   57.1540 C.ar    0  <0>0        0.0187
     12  C21        5.8480   36.0360   55.8280 C.ar    0  <0>0        0.0013
     13  C20        6.9860   36.0090   55.0430 C.ar    0  <0>0        0.0001
     14  C19        8.2070   36.3630   55.5860 C.ar    0  <0>0        0.0013
     15  C18        8.2900   36.7470   56.9120 C.ar    0  <0>0        0.0187
     16  C11        7.0690   34.2380   59.8840 C.ar    0  <0>0        0.0424
     17  C16        7.0270   33.5180   58.6900 C.ar    0  <0>0        0.0602
     18  C15        5.8500   32.9110   58.2930 C.ar    0  <0>0        0.0115
     19 Cl          8.4490   33.3850   57.7040 Cl      0  <0>0       -0.0822
     20  C14        4.7170   33.0170   59.0780 C.ar    0  <0>0        0.0009
     21  C13        4.7540   33.7290   60.2640 C.ar    0  <0>0        0.0001
     22  C12        5.9240   34.3340   60.6730 C.ar    0  <0>0        0.0035
     23  C4        11.4810   33.9380   61.9070 C.ar    0  <0>0        0.0740
     24  C3        11.1720   32.6810   62.4230 C.ar    0  <0>0        0.0110
     25  C2        12.1610   31.9170   63.0110 C.ar    0  <0>0        0.0007
     26  C1        13.4550   32.3990   63.0890 C.ar    0  <0>0        0.0000
     27  C6        13.7670   33.6470   62.5790 C.ar    0  <0>0        0.0007
     28  C5        12.7870   34.4150   61.9830 C.ar    0  <0>0        0.0110
@<TRIPOS>BOND
     1    13    14   ar
     2    13    12   ar
     3    14    15   ar
     4    12    11   ar
     5    15    10   ar
     6    11    10   ar
     7    10     7    1
     8    19    17    1
     9    18    17   ar
    10    18    20   ar
    11    17    16   ar
    12    20    21   ar
    13     7     9    2
    14     7     8    2
    15     7     4    1
    16    16     5    1
    17    16    22   ar
    18     4     5    1
    19     4     3    2
    20    21    22   ar
    21     5     6    2
    22     3     2    1
    23     6     1    2
    24     2     1    2
    25     1    23    1
    26    23    28   ar
    27    23    24   ar
    28    28    27   ar
    29    24    25   ar
    30    27    26   ar
    31    25    26   ar
