@<TRIPOS>MOLECULE
ZINC07292111_replica-1.pdb
 27 28 0 0 0
SMALL
GASTEIGER

@<TRIPOS>ATOM
      1  C8        -1.5020   30.3600   54.3690 C.ar    0  <0>0        0.1865
      2  N2        -2.2650   30.5100   55.4340 N.ar    0  <0>0       -0.1249
      3  N3        -1.7710   31.1530   56.5450 N.ar    0  <0>0       -0.1331
      4  C9        -0.5400   31.6270   56.5360 C.ar    0  <0>0        0.1611
      5  S1         0.0040   31.1620   54.8990 S.2     0  <0>0       -0.0242
      6  S2         0.3360   32.4880   57.7990 S.3     0  <0>0       -0.0768
      7  C10        0.6740   34.1130   57.0690 C.3     0  <0>0        0.1488
      8  C11        2.1460   34.2340   56.7720 C.2     0  <0>0        0.2338
      9  O1         2.6900   33.4160   56.0620 O.2     0  <0>0       -0.2741
     10  N4         2.8580   35.2510   57.2960 N.am    0  <0>0       -0.3052
     11  H12        2.4220   35.9060   57.8650 H       0  <0>0        0.1494
     12  C12        4.2900   35.3690   57.0070 C.3     0  <0>0        0.0716
     13  C13        4.4970   36.3420   55.8450 C.3     0  <0>0        0.0213
     14  C14        5.0190   35.8920   58.2460 C.3     0  <0>0        0.0196
     15  C15        6.4750   36.1980   57.8900 C.3     0  <0>0        0.0017
     16  C16        7.0880   37.0900   58.9710 C.3     0  <0>0        0.0001
     17  C17        7.6460   38.3620   58.3290 C.3     0  <0>0        0.0000
     18  C18        6.0130   37.4650   59.9930 C.3     0  <0>0        0.0000
     19  N1        -1.7930   29.7460   53.1560 N.pl3   0  <0>0       -0.2913
     20  H9        -2.3210   30.2130   52.4890 H       0  <0>0        0.1541
     21  C6        -1.3250   28.4560   52.8960 C.ar    0  <0>0        0.0494
     22  C5        -1.5840   27.8540   51.6710 C.ar    0  <0>0        0.0146
     23  C4        -1.1180   26.5790   51.4170 C.ar    0  <0>0        0.0009
     24  C3        -0.3940   25.9010   52.3800 C.ar    0  <0>0       -0.0042
     25  C2        -0.1380   26.4950   53.6030 C.ar    0  <0>0       -0.0206
     26  C1         0.6470   25.7510   54.6520 C.3     0  <0>0        0.0311
     27  C7        -0.5960   27.7720   53.8610 C.ar    0  <0>0        0.0104
@<TRIPOS>BOND
     1    23    22   ar
     2    23    24   ar
     3    22    21   ar
     4    24    25   ar
     5    20    19    1
     6    21    19    1
     7    21    27   ar
     8    19     1    1
     9    25    27   ar
    10    25    26    1
    11     1     5   ar
    12     1     2   ar
    13     5     4   ar
    14     2     3   ar
    15    13    12    1
    16     9     8    2
    17     4     3   ar
    18     4     6    1
    19     8     7    1
    20     8    10   am
    21    12    10    1
    22    12    14    1
    23     7     6    1
    24    10    11    1
    25    15    14    1
    26    15    16    1
    27    17    16    1
    28    16    18    1
