@<TRIPOS>MOLECULE
ZINC06299011_replica-1.pdb
 25 27 0 0 0
SMALL
GASTEIGER

@<TRIPOS>ATOM
      1  C8         0.2290   31.6810   56.4090 C.2     0  <0>0        0.1507
      2  S1         0.2560   32.8940   57.6170 S.2     0  <0>0       -0.0172
      3  N2        -0.4530   31.8840   55.2650 N.am    0  <0>0       -0.2178
      4  H9        -0.9290   32.7180   55.1250 H       0  <0>0        0.1762
      5  N3        -0.4740   30.8920   54.2760 N.2     0  <0>0       -0.1784
      6  C9        -1.4810   30.0730   54.1970 C.2     0  <0>0        0.1175
      7  C10       -1.5030   29.0320   53.1600 C.ar    0  <0>0        0.0207
      8  C15       -0.8330   27.7510   53.3740 C.ar    0  <0>0        0.0015
      9  C14       -0.8840   26.7720   52.3500 C.ar    0  <0>0        0.0000
     10  C16       -0.1590   27.4680   54.5690 C.ar    0  <0>0        0.0000
     11  C13       -1.5630   27.0590   51.1550 C.ar    0  <0>0        0.0000
     12  C19       -0.2460   25.5360   52.5510 C.ar    0  <0>0        0.0000
     13  C12       -2.1760   28.2600   50.9750 C.ar    0  <0>0        0.0000
     14  C11       -2.1570   29.2460   51.9530 C.ar    0  <0>0        0.0016
     15  C18        0.4040   25.2950   53.7230 C.ar    0  <0>0        0.0000
     16  C17        0.4470   26.2580   54.7300 C.ar    0  <0>0        0.0000
     17  N1         0.8910   30.5230   56.6020 N.am    0  <0>0       -0.3111
     18  H8         1.3320   30.0850   55.8570 H       0  <0>0        0.1488
     19  C7         0.9480   29.9270   57.9390 C.3     0  <0>0        0.1156
     20  C4         0.0550   28.7130   57.9870 C.ar    0  <0>0       -0.0026
     21  C3         0.5950   27.4660   58.2420 C.ar    0  <0>0       -0.0026
     22  C2        -0.2230   26.3540   58.2860 C.ar    0  <0>0       -0.0003
     23  C1        -1.5830   26.4880   58.0740 C.ar    0  <0>0       -0.0000
     24  C6        -2.1230   27.7340   57.8190 C.ar    0  <0>0       -0.0003
     25  C5        -1.3050   28.8470   57.7800 C.ar    0  <0>0       -0.0026
@<TRIPOS>BOND
     1    13    11   ar
     2    13    14   ar
     3    11     9   ar
     4    14     7   ar
     5     9    12   ar
     6     9     8   ar
     7    12    15   ar
     8     7     8   ar
     9     7     6    1
    10     8    10   ar
    11    15    16   ar
    12     6     5    2
    13     5     3    1
    14    10    16   ar
    15     4     3    1
    16     3     1    1
    17    18    17    1
    18     1    17    1
    19     1     2    2
    20    17    19    1
    21    25    24   ar
    22    25    20   ar
    23    24    23   ar
    24    19    20    1
    25    20    21   ar
    26    23    22   ar
    27    21    22   ar
