@<TRIPOS>MOLECULE
ZINC48397648_replica-1.pdb
 20 21 0 0 0
SMALL
GASTEIGER

@<TRIPOS>ATOM
      1  C7         0.0770   30.9500   55.6460 C.2     0  <0>0        0.1833
      2  N1         0.1260   29.9630   54.7690 N.2     0  <0>0       -0.3928
      3  C8        -0.9600   29.2520   54.4730 C.2     0  <0>0        0.1215
      4  C9        -2.1430   29.5510   55.0870 C.3     0  <0>0        0.1239
      5  S2        -1.6410   30.9110   56.1340 S.3     0  <0>0       -0.0684
      6  S1         1.3680   32.0180   56.1930 S.3     0  <0>0       -0.0641
      7  C6         1.8110   31.3680   57.8280 C.3     0  <0>0        0.1743
      8  C5         0.8270   31.8720   58.8530 C.2     0  <0>0        0.3283
      9  O2         0.3910   31.1190   59.6920 O.2     0  <0>0       -0.2491
     10  O1         0.4360   33.1550   58.8330 O.3     0  <0>0       -0.4551
     11  C2         1.0620   34.0390   59.7660 C.3     0  <0>0        0.1363
     12  C1         2.3770   33.4210   60.2490 C.3     0  <0>0        0.0437
     13  C3         0.1330   34.2610   60.9610 C.3     0  <0>0        0.0437
     14  C4         1.3470   35.3790   59.0860 C.3     0  <0>0        0.0437
     15  C10       -0.8860   28.1480   53.4860 C.ar    0  <0>0        0.0263
     16  C15       -0.2030   26.9750   53.8000 C.ar    0  <0>0        0.0022
     17  C14       -0.1420   25.9470   52.8790 C.ar    0  <0>0        0.0001
     18  C13       -0.7480   26.0860   51.6430 C.ar    0  <0>0        0.0000
     19  C12       -1.4230   27.2510   51.3250 C.ar    0  <0>0        0.0001
     20  C11       -1.4950   28.2810   52.2390 C.ar    0  <0>0        0.0022
@<TRIPOS>BOND
     1    19    18   ar
     2    19    20   ar
     3    18    17   ar
     4    20    15   ar
     5    17    16   ar
     6    15    16   ar
     7    15     3    1
     8     3     2    2
     9     3     4    1
    10     2     1    2
    11     4     5    1
    12     1     5    1
    13     1     6    1
    14     6     7    1
    15     7     8    1
    16    10     8    1
    17    10    11    1
    18     8     9    2
    19    14    11    1
    20    11    12    1
    21    11    13    1
