@<TRIPOS>MOLECULE
ZINC38732460_replica-1.pdb
 29 32 0 0 0
SMALL
GASTEIGER

@<TRIPOS>ATOM
      1  C1        -1.4350   27.0940   51.0770 C.3     0  <0>0        0.0307
      2  C2        -0.8800   27.0910   52.4780 C.2     0  <0>0       -0.0253
      3  C3        -0.0930   26.0230   52.9050 C.2     0  <0>0       -0.0023
      4  C4         0.4230   25.9890   54.1650 C.2     0  <0>0        0.0279
      5  C5         0.1630   27.0450   55.0550 C.2     0  <0>0        0.1183
      6  C6        -0.6370   28.1310   54.6190 C.3     0  <0>0        0.0957
      7  C7        -1.1500   28.1350   53.3090 C.2     0  <0>0       -0.0193
      8  C8        -0.9010   29.1900   55.5040 C.2     0  <0>0       -0.0154
      9  C9        -0.3590   29.1260   56.7840 C.2     0  <0>0        0.0195
     10  C10        0.4320   28.0060   57.1460 C.2     0  <0>0        0.1785
     11  N1         0.6630   27.0300   56.2970 N.2     0  <0>0       -0.3910
     12  C17       -0.6020   30.2040   57.7470 C.3     0  <0>0        0.0504
     13  C18        0.1390   31.3420   57.6950 C.3     0  <0>0        0.1346
     14  S2         0.7910   32.2120   56.2770 S.3     0  <0>0       -0.0831
     15  C20        1.5960   33.5420   57.1550 C.2     0  <0>0        0.1171
     16  N3         1.3410   33.2560   58.4480 N.am    0  <0>0       -0.2492
     17  S1         2.4850   34.8560   56.5120 S.2     0  <0>0       -0.0275
     18  C19        0.6320   32.1950   58.7940 C.2     0  <0>0        0.2404
     19  O1         0.4000   31.9340   59.9590 O.2     0  <0>0       -0.2736
     20  C21        1.8580   34.1430   59.4920 C.3     0  <0>0        0.0808
     21  C22        0.7060   34.6040   60.3880 C.3     0  <0>0        0.0219
     22  C23        2.8900   33.3930   60.3350 C.3     0  <0>0        0.0219
     23  N2         0.9720   27.9400   58.4180 N.pl3   0  <0>0       -0.2839
     24  C15        0.2930   27.1890   59.4820 C.3     0  <0>0        0.0931
     25  C14        1.2890   26.1890   60.0860 C.3     0  <0>0        0.0216
     26  C13        2.5400   26.9390   60.5470 C.3     0  <0>0        0.0034
     27  C12        3.2050   27.6140   59.3460 C.3     0  <0>0        0.0216
     28  C16        3.5210   25.9530   61.1840 C.3     0  <0>0        0.0001
     29  C11        2.2330   28.6260   58.7320 C.3     0  <0>0        0.0931
@<TRIPOS>BOND
     1     1     2    1
     2     2     3    1
     3     2     7    2
     4     3     4    2
     5     7     6    1
     6     4     5    1
     7     6     5    1
     8     6     8    1
     9     5    11    2
    10     8     9    2
    11    14    15    1
    12    14    13    1
    13    11    10    2
    14    17    15    2
    15     9    10    1
    16     9    12    1
    17    10    23    1
    18    15    16    1
    19    13    12    1
    20    13    18    1
    21    23    29    1
    22    23    24    1
    23    16    18   am
    24    16    20    1
    25    29    27    1
    26    18    19    2
    27    27    26    1
    28    24    25    1
    29    20    22    1
    30    20    21    1
    31    25    26    1
    32    26    28    1
