@<TRIPOS>MOLECULE
ZINC06626722_replica-1.pdb
 28 31 0 0 0
SMALL
GASTEIGER

@<TRIPOS>ATOM
      1  N2         0.6670   27.5510   56.4040 N.pl3   0  <0>0       -0.3303
      2  C11       -0.1040   27.3380   57.4930 C.3     0  <0>0        0.0991
      3  H8         1.4450   28.1290   56.4650 H       0  <0>0        0.1469
      4  C10        0.3470   26.9400   55.1910 C.2     0  <0>0        0.0710
      5  C5        -0.3970   27.6400   54.2160 C.2     0  <0>0        0.1289
      6  N1        -0.8080   28.8920   54.4320 N.2     0  <0>0       -0.4087
      7  C6        -0.7130   26.9930   52.9970 C.3     0  <0>0        0.0939
      8  C4        -1.4990   29.5480   53.5300 C.2     0  <0>0        0.1085
      9  C3        -1.8390   28.9730   52.3080 C.2     0  <0>0        0.0198
     10  C22       -1.9380   30.9580   53.8240 C.3     0  <0>0        0.0664
     11  C2        -1.4490   27.6940   52.0230 C.2     0  <0>0       -0.0314
     12  C1        -1.8040   27.0510   50.7080 C.3     0  <0>0        0.0272
     13  C7        -0.2840   25.6740   52.7760 C.2     0  <0>0       -0.0153
     14  C8         0.4270   25.0220   53.7370 C.2     0  <0>0       -0.0025
     15  C9         0.7390   25.6430   54.9430 C.2     0  <0>0        0.0163
     16  C12        0.2140   27.9440   58.6960 C.3     0  <0>0        0.1017
     17  C14        0.1360   29.3720   59.0250 C.2     0  <0>0        0.0934
     18  N4         0.5420   29.4830   60.3060 N.am    0  <0>0       -0.1879
     19  S1        -0.3730   30.6400   57.9930 S.2     0  <0>0       -0.0368
     20  N3         0.8820   28.2280   60.8110 N.2     0  <0>0       -0.1820
     21  C13        0.7120   27.3000   59.9200 C.2     0  <0>0        0.0622
     22  C21        0.9760   25.8270   60.1070 C.3     0  <0>0        0.0494
     23  C15        0.6160   30.6840   61.0230 C.ar    0  <0>0        0.0741
     24  C20        1.6270   31.5960   60.7470 C.ar    0  <0>0        0.0167
     25  C19        1.6950   32.7820   61.4520 C.ar    0  <0>0        0.0013
     26  C18        0.7660   33.0560   62.4380 C.ar    0  <0>0        0.0001
     27  C17       -0.2380   32.1490   62.7180 C.ar    0  <0>0        0.0013
     28  C16       -0.3160   30.9630   62.0130 C.ar    0  <0>0        0.0167
@<TRIPOS>BOND
     1    12    11    1
     2    11     9    2
     3    11     7    1
     4     9     8    1
     5    13     7    1
     6    13    14    2
     7     7     5    1
     8     8    10    1
     9     8     6    2
    10    14    15    1
    11     5     6    2
    12     5     4    1
    13    15     4    2
    14     4     1    1
    15     1     3    1
    16     1     2    1
    17     2    16    1
    18    19    17    2
    19    16    17    1
    20    16    21    1
    21    17    18    1
    22    21    22    1
    23    21    20    2
    24    18    20    1
    25    18    23    1
    26    24    23   ar
    27    24    25   ar
    28    23    28   ar
    29    25    26   ar
    30    28    27   ar
    31    26    27   ar
