@<TRIPOS>MOLECULE
ZINC01511080_replica-1.pdb
 26 29 0 0 0
SMALL
GASTEIGER

@<TRIPOS>ATOM
      1  C13        0.0050   30.6140   55.3610 C.2     0  <0>0        0.1924
      2  C14       -1.4560   30.6130   55.5330 C.2     0  <0>0        0.3738
      3  O2        -2.1130   31.3250   56.2710 O.2     0  <0>0       -0.2419
      4  O3        -1.9130   29.6560   54.6980 O.3     0  <0>0       -0.3911
      5  C15       -0.8620   29.0990   54.0660 C.2     0  <0>0        0.2848
      6  N1         0.2630   29.6430   54.4390 N.2     0  <0>0       -0.3648
      7  C12        0.9240   31.4260   56.0020 C.3     0  <0>0        0.0953
      8  C11        0.9260   31.5140   57.4130 C.ar    0  <0>0        0.0191
      9  C2         0.9370   30.3560   58.2040 C.ar    0  <0>0        0.1351
     10  C3         0.9440   30.4540   59.5940 C.ar    0  <0>0        0.0366
     11  C4         0.9290   31.6550   60.2280 C.ar    0  <0>0        0.0031
     12  C5         0.9130   32.8580   59.4980 C.ar    0  <0>0       -0.0001
     13  C10        0.9120   32.8170   58.0840 C.ar    0  <0>0       -0.0007
     14  C6         0.8980   34.1040   60.1470 C.ar    0  <0>0       -0.0000
     15  C9         0.8950   34.0110   57.3560 C.ar    0  <0>0       -0.0002
     16  C8         0.8810   35.2050   58.0190 C.ar    0  <0>0       -0.0000
     17  C7         0.8830   35.2480   59.4090 C.ar    0  <0>0       -0.0000
     18  O1         0.9450   29.1360   57.6130 O.3     0  <0>0       -0.4717
     19  C1         1.3370   28.0250   58.4220 C.3     0  <0>0        0.2525
     20  C16       -0.9700   28.0090   53.0770 C.ar    0  <0>0        0.0727
     21  C21       -0.4060   26.7580   53.3430 C.ar    0  <0>0        0.0401
     22  C20       -0.5110   25.7450   52.4130 C.ar    0  <0>0        0.0069
     23 Br          0.5000   26.4570   54.9760 Br      0  <0>0       -0.0488
     24  C19       -1.1730   25.9640   51.2180 C.ar    0  <0>0        0.0005
     25  C18       -1.7350   27.2000   50.9470 C.ar    0  <0>0        0.0002
     26  C17       -1.6410   28.2200   51.8700 C.ar    0  <0>0        0.0063
@<TRIPOS>BOND
     1    25    24   ar
     2    25    26   ar
     3    24    22   ar
     4    26    20   ar
     5    22    21   ar
     6    20    21   ar
     7    20     5    1
     8    21    23    1
     9     5     6    2
    10     5     4    1
    11     6     1    2
    12     4     2    1
    13     1     2    1
    14     1     7    1
    15     2     3    2
    16     7     8    1
    17    15    16   ar
    18    15    13   ar
    19     8    13   ar
    20     8     9   ar
    21    18     9    1
    22    18    19    1
    23    16    17   ar
    24    13    12   ar
    25     9    10   ar
    26    17    14   ar
    27    12    14   ar
    28    12    11   ar
    29    10    11   ar
