@<TRIPOS>MOLECULE
ZINC57656983_replica-1.pdb
 24 25 0 0 0
SMALL
GASTEIGER

@<TRIPOS>ATOM
      1  C9        -1.4360   29.3920   56.1930 C.3     0  <0>0        0.1220
      2  N1        -0.2050   28.8580   55.6060 N.pl3   0  <0>0       -0.3289
      3  H11        0.6580   29.1750   55.9160 H       0  <0>0        0.1471
      4  C5        -0.2730   27.8950   54.5970 C.ar    0  <0>0        0.0445
      5  C4         0.3000   26.6440   54.7890 C.ar    0  <0>0        0.0140
      6  C3         0.2310   25.6930   53.7910 C.ar    0  <0>0       -0.0033
      7  C2        -0.4070   25.9850   52.5990 C.ar    0  <0>0       -0.0257
      8  C1        -0.4810   24.9460   51.5110 C.3     0  <0>0        0.0307
      9  C7        -0.9740   27.2310   52.4020 C.ar    0  <0>0       -0.0246
     10  C6        -0.9130   28.1850   53.4000 C.ar    0  <0>0        0.0097
     11  C8        -1.6630   27.5460   51.0990 C.3     0  <0>0        0.0307
     12  C10       -1.3000   30.9040   56.3770 C.3     0  <0>0        0.2172
     13  N2        -0.3480   31.4320   55.3950 N.pl3   0  <0>0        0.0366
     14  O1        -0.6520   31.4840   54.2260 O.2     0  <0>0       -0.1309
     15  O2         0.7400   31.8160   55.7540 O.2     0  <0>0       -0.1309
     16  C11       -1.6750   28.7440   57.5330 C.ar    0  <0>0       -0.0025
     17  C16       -2.5510   27.6800   57.6390 C.ar    0  <0>0       -0.0029
     18  C15       -2.7680   27.0830   58.8670 C.ar    0  <0>0       -0.0045
     19  C14       -2.1130   27.5540   59.9890 C.ar    0  <0>0       -0.0225
     20  C13       -1.2420   28.6210   59.8850 C.ar    0  <0>0       -0.0045
     21  C12       -1.0220   29.2150   58.6560 C.ar    0  <0>0       -0.0029
     22  C17       -2.3520   26.9050   61.3280 C.3     0  <0>0        0.0224
     23  C18       -1.0220   26.4140   61.9020 C.3     0  <0>0        0.0047
     24  C19       -2.9760   27.9230   62.2850 C.3     0  <0>0        0.0047
@<TRIPOS>BOND
     1    11     9    1
     2     8     7    1
     3     9     7   ar
     4     9    10   ar
     5     7     6   ar
     6    10     4   ar
     7     6     5   ar
     8    14    13    2
     9     4     5   ar
    10     4     2    1
    11    13    15    2
    12    13    12    1
    13     2     3    1
    14     2     1    1
    15     1    12    1
    16     1    16    1
    17    16    17   ar
    18    16    21   ar
    19    17    18   ar
    20    21    20   ar
    21    18    19   ar
    22    20    19   ar
    23    19    22    1
    24    22    23    1
    25    22    24    1
