@<TRIPOS>MOLECULE
ZINC62138495_replica-1.pdb
 21 22 0 0 0
SMALL
GASTEIGER

@<TRIPOS>ATOM
      1  C8         9.3620   37.1090   60.8750 C.3     0  <0>0        0.1149
      2  C7         8.9830   36.1110   59.7780 C.3     0  <0>0        0.0572
      3  C5         8.4990   36.8600   58.5630 C.ar    0  <0>0        0.0027
      4  C4         7.8000   36.1940   57.5750 C.ar    0  <0>0        0.1390
      5  C3         7.3540   36.8810   56.4600 C.ar    0  <0>0        0.0237
      6  C2         7.6070   38.2330   56.3360 C.ar    0  <0>0        0.0017
      7  C1         8.3060   38.9000   57.3250 C.ar    0  <0>0       -0.0002
      8  C6         8.7510   38.2130   58.4390 C.ar    0  <0>0       -0.0025
      9  N1         7.5280   34.7450   57.7080 N.pl3   0  <0>0        0.0574
     10  O2         8.3140   33.9390   57.2660 O.2     0  <0>0       -0.1261
     11  O3         6.5190   34.3670   58.2560 O.2     0  <0>0       -0.1261
     12  C9        10.5230   36.5460   61.6980 C.3     0  <0>0        0.0296
     13  C10       10.9900   35.2250   61.0840 C.3     0  <0>0        0.0025
     14  C11       11.5160   34.3070   62.1900 C.3     0  <0>0        0.0001
     15  C16       10.9280   32.9060   62.0110 C.3     0  <0>0        0.0000
     16  C15       11.4540   31.9880   63.1170 C.3     0  <0>0        0.0000
     17  C14       12.9800   31.9150   63.0360 C.3     0  <0>0        0.0000
     18  C13       13.5680   33.3170   63.2140 C.3     0  <0>0        0.0000
     19  C12       13.0420   34.2340   62.1080 C.3     0  <0>0        0.0000
     20  O1         8.2370   37.3290   61.7270 O.3     0  <0>0       -0.3841
     21  H23        8.2020   36.7390   62.4930 H       0  <0>0        0.2103
@<TRIPOS>BOND
     1     6     5   ar
     2     6     7   ar
     3     5     4   ar
     4    10     9    2
     5     7     8   ar
     6     4     9    1
     7     4     3   ar
     8     9    11    2
     9     8     3   ar
    10     3     2    1
    11     2     1    1
    12     1    12    1
    13     1    20    1
    14    13    12    1
    15    13    14    1
    16    20    21    1
    17    15    14    1
    18    15    16    1
    19    19    14    1
    20    19    18    1
    21    17    16    1
    22    17    18    1
