@<TRIPOS>MOLECULE
ZINC59334009_replica-1.pdb
 26 27 0 0 0
SMALL
GASTEIGER

@<TRIPOS>ATOM
      1  C15        3.3730   32.8800   56.4100 C.2     0  <0>0        0.0149
      2  C16        2.0170   32.9510   56.6380 C.2     0  <0>0        0.1218
      3  C17        1.1320   32.0270   55.9910 C.1     0  <0>0        0.1050
      4  N1         0.4320   31.2940   55.4780 N.1     0  <0>0       -0.1907
      5  C18        1.4750   33.9740   57.5450 C.2     0  <0>0        0.2588
      6  O2         1.2120   35.0840   57.1220 O.2     0  <0>0       -0.2692
      7  N2         1.2690   33.6830   58.8450 N.am    0  <0>0       -0.2720
      8  C19        0.8230   34.7280   59.7690 C.3     0  <0>0        0.1152
      9  C20        1.4920   32.3190   59.3330 C.3     0  <0>0        0.1152
     10  C12        4.2600   33.9150   56.9450 C.ar    0  <0>0        0.0023
     11  C11        4.6580   34.9880   56.1340 C.ar    0  <0>0        0.0145
     12  C10        5.4920   35.9590   56.6410 C.ar    0  <0>0        0.0920
     13  C9         5.9400   35.8770   57.9570 C.ar    0  <0>0        0.1556
     14 Cl          5.9860   37.2870   55.6390 Cl      0  <0>0       -0.0791
     15  C14        5.5520   34.8120   58.7640 C.ar    0  <0>0        0.0693
     16  C13        4.7140   33.8380   58.2680 C.ar    0  <0>0        0.0098
     17 Br          6.1720   34.7060   60.5470 Br      0  <0>0       -0.0458
     18  O1         6.7620   36.8370   58.4510 O.3     0  <0>0       -0.4693
     19  C8         8.1060   36.8520   57.9660 C.3     0  <0>0        0.2320
     20  C5         9.0410   36.4200   59.0660 C.ar    0  <0>0        0.0211
     21  C4         9.2580   37.2440   60.1540 C.ar    0  <0>0       -0.0010
     22  C3        10.1130   36.8460   61.1640 C.ar    0  <0>0       -0.0045
     23  C2        10.7540   35.6240   61.0850 C.ar    0  <0>0       -0.0219
     24  C1        11.6870   35.1900   62.1860 C.3     0  <0>0        0.0310
     25  C7        10.5410   34.8010   59.9960 C.ar    0  <0>0       -0.0045
     26  C6         9.6810   35.1970   58.9880 C.ar    0  <0>0       -0.0010
@<TRIPOS>BOND
     1     4     3    3
     2    14    12    1
     3     3     2    1
     4    11    12   ar
     5    11    10   ar
     6     1     2    2
     7     1    10    1
     8     2     5    1
     9    12    13   ar
    10    10    16   ar
    11     6     5    2
    12     5     7   am
    13    13    18    1
    14    13    15   ar
    15    19    18    1
    16    19    20    1
    17    16    15   ar
    18    15    17    1
    19     7     9    1
    20     7     8    1
    21    26    20   ar
    22    26    25   ar
    23    20    21   ar
    24    25    23   ar
    25    21    22   ar
    26    23    22   ar
    27    23    24    1
