@<TRIPOS>MOLECULE
ZINC13496739_replica-1.pdb
 25 26 0 0 0
SMALL
GASTEIGER

@<TRIPOS>ATOM
      1  N1         0.3080   32.8080   55.8820 N.am    0  <0>0       -0.3140
      2  H21        0.2420   33.4930   55.1980 H       0  <0>0        0.1487
      3  C9         0.9780   33.1010   57.1510 C.3     0  <0>0        0.0932
      4  C10        0.0390   33.9090   58.0490 C.3     0  <0>0        0.0261
      5  C6         2.2290   33.9000   56.8850 C.ar    0  <0>0       -0.0043
      6  C5         2.1460   35.2660   56.6870 C.ar    0  <0>0        0.0004
      7  C4         3.2910   36.0000   56.4440 C.ar    0  <0>0        0.0366
      8  C3         4.5240   35.3650   56.3960 C.ar    0  <0>0        0.1385
      9  C8         4.6030   33.9930   56.5890 C.ar    0  <0>0        0.0366
     10  C7         3.4570   33.2650   56.8380 C.ar    0  <0>0        0.0004
     11  O1         5.6510   36.0850   56.1560 O.3     0  <0>0       -0.4755
     12  C2         6.4400   35.6970   55.0290 C.3     0  <0>0        0.2055
     13  C1         7.7640   36.4640   55.0450 C.3     0  <0>0        0.0512
     14  C11       -0.2270   31.5700   55.6620 C.2     0  <0>0        0.1318
     15  S1        -0.6460   30.6070   56.9470 S.2     0  <0>0       -0.0188
     16  N2        -0.4150   31.1240   54.3840 N.am    0  <0>0       -0.3124
     17  H14        0.2800   31.2520   53.7190 H       0  <0>0        0.1487
     18  C12       -1.6660   30.4550   54.0190 C.3     0  <0>0        0.1156
     19  C13       -1.3570   29.1230   53.3860 C.ar    0  <0>0       -0.0025
     20  C18       -0.5780   28.2010   54.0610 C.ar    0  <0>0       -0.0018
     21  C17       -0.2990   26.9770   53.4840 C.ar    0  <0>0        0.0111
     22  C16       -0.7890   26.6780   52.2250 C.ar    0  <0>0        0.0577
     23  C15       -1.5630   27.6030   51.5470 C.ar    0  <0>0        0.0111
     24 Cl         -0.4330   25.1430   51.4970 Cl      0  <0>0       -0.0822
     25  C14       -1.8470   28.8250   52.1280 C.ar    0  <0>0       -0.0018
@<TRIPOS>BOND
     1    24    22    1
     2    23    25   ar
     3    23    22   ar
     4    25    19   ar
     5    22    21   ar
     6    19    18    1
     7    19    20   ar
     8    21    20   ar
     9    17    16    1
    10    18    16    1
    11    16    14    1
    12    12    13    1
    13    12    11    1
    14     2     1    1
    15    14     1    1
    16    14    15    2
    17     1     3    1
    18    11     8    1
    19     8     7   ar
    20     8     9   ar
    21     7     6   ar
    22     9    10   ar
    23     6     5   ar
    24    10     5   ar
    25     5     3    1
    26     3     4    1
