@<TRIPOS>MOLECULE
ZINC22789754_replica-1.pdb
 29 31 0 0 0
SMALL
GASTEIGER

@<TRIPOS>ATOM
      1  C9         9.5940   35.1640   60.4360 C.3     0  <0>0       -0.0336
      2  N1         9.5710   36.5710   60.8550 N.4     0  <0>0        0.3905
      3  H11        9.6650   37.1650   60.0450 H       0  <0>0       -0.0834
      4  H28       10.3350   36.7460   61.4900 H       0  <0>0       -0.0834
      5  C8         8.2970   36.8610   61.5290 C.3     0  <0>0       -0.0537
      6  C5         7.1550   36.5780   60.5870 C.ar    0  <0>0       -0.0437
      7  C4         6.9800   37.3580   59.4600 C.ar    0  <0>0       -0.0067
      8  C3         5.9330   37.0980   58.5950 C.ar    0  <0>0       -0.0047
      9  C2         5.0620   36.0580   58.8580 C.ar    0  <0>0       -0.0219
     10  C1         3.9200   35.7750   57.9160 C.3     0  <0>0        0.0310
     11  C7         5.2340   35.2820   59.9890 C.ar    0  <0>0       -0.0047
     12  C6         6.2830   35.5380   60.8510 C.ar    0  <0>0       -0.0067
     13  C10       10.0300   35.0740   58.9720 C.3     0  <0>0        0.0093
     14  C11        8.8910   34.5370   58.1420 C.ar    0  <0>0       -0.0237
     15  C16        8.1860   33.4290   58.5710 C.ar    0  <0>0       -0.0012
     16  C15        7.1380   32.9400   57.8150 C.ar    0  <0>0        0.0366
     17  C14        6.8020   33.5550   56.6170 C.ar    0  <0>0        0.1387
     18  C13        7.5160   34.6640   56.1860 C.ar    0  <0>0        0.0366
     19  C12        8.5590   35.1530   56.9490 C.ar    0  <0>0       -0.0012
     20  O1         5.7760   33.0730   55.8690 O.3     0  <0>0       -0.4714
     21  C17        5.2360   33.9430   54.8720 C.3     0  <0>0        0.2525
     22  C18       10.5670   34.4000   61.2960 C.ar    0  <0>0       -0.0415
     23  C23       11.7130   35.0200   61.7610 C.ar    0  <0>0       -0.0032
     24  C22       12.6020   34.3230   62.5550 C.ar    0  <0>0        0.0365
     25  C21       12.3530   32.9970   62.8770 C.ar    0  <0>0        0.1387
     26  C20       11.2060   32.3750   62.4050 C.ar    0  <0>0        0.0365
     27  C19       10.3170   33.0780   61.6150 C.ar    0  <0>0       -0.0032
     28  O2        13.2290   32.3080   63.6550 O.3     0  <0>0       -0.4714
     29  C24       13.1650   30.8820   63.5980 C.3     0  <0>0        0.2525
@<TRIPOS>BOND
     1    21    20    1
     2    20    17    1
     3    18    17   ar
     4    18    19   ar
     5    17    16   ar
     6    19    14   ar
     7    16    15   ar
     8    10     9    1
     9    14    15   ar
    10    14    13    1
    11     8     9   ar
    12     8     7   ar
    13     9    11   ar
    14    13     1    1
    15     7     6   ar
    16    11    12   ar
    17     3     2    1
    18     1     2    1
    19     1    22    1
    20     6    12   ar
    21     6     5    1
    22     2     4    1
    23     2     5    1
    24    22    27   ar
    25    22    23   ar
    26    27    26   ar
    27    23    24   ar
    28    26    25   ar
    29    24    25   ar
    30    25    28    1
    31    29    28    1
