@<TRIPOS>MOLECULE
ZINC03310424_replica-1.pdb
 21 23 0 0 0
SMALL
GASTEIGER

@<TRIPOS>ATOM
      1  C5        -0.6240   29.6250   55.0130 C.ar    0  <0>0        0.0937
      2  C6        -1.2770   29.4650   53.8290 C.ar    0  <0>0        0.0693
      3  C7        -1.1340   28.2660   53.1060 C.ar    0  <0>0        0.0278
      4  C8        -0.2920   27.2960   53.7010 C.ar    0  <0>0        0.0321
      5  S1         0.2480   28.0800   55.1990 S.2     0  <0>0       -0.0815
      6  C9        -0.0530   26.0720   53.1140 C.ar    0  <0>0        0.0179
      7  C10       -0.6490   25.7680   51.9050 C.ar    0  <0>0        0.0590
      8  C11       -1.4820   26.7020   51.2980 C.ar    0  <0>0        0.0228
      9  C12       -1.7210   27.9150   51.8630 C.ar    0  <0>0        0.0598
     10 Cl         -2.7640   29.0460   51.0560 Cl      0  <0>0       -0.0822
     11 Cl         -0.3620   24.2320   51.1500 Cl      0  <0>0       -0.0822
     12 Cl         -2.2830   30.7380   53.2110 Cl      0  <0>0       -0.0815
     13  C4        -0.6360   30.7820   55.9140 C.2     0  <0>0        0.2575
     14  N2         0.5260   31.3420   56.3090 N.am    0  <0>0       -0.2627
     15  H3         1.3690   30.9790   55.9960 H       0  <0>0        0.1567
     16  O2        -1.6940   31.2370   56.3060 O.2     0  <0>0       -0.2692
     17  C3         0.5150   32.4420   57.1640 C.ar    0  <0>0        0.1767
     18  C1         0.5070   32.4180   58.5840 C.ar    0  <0>0        0.0812
     19  C2         0.5010   33.7250   58.9320 C.ar    0  <0>0        0.2152
     20  O1         0.4970   34.4260   57.7900 O.2     0  <0>0       -0.3489
     21  N1         0.5050   33.7030   56.8200 N.ar    0  <0>0       -0.0616
@<TRIPOS>BOND
     1    10     9    1
     2    11     7    1
     3     8     9   ar
     4     8     7   ar
     5     9     3   ar
     6     7     6   ar
     7     3     4   ar
     8     3     2   ar
     9     6     4   ar
    10    12     2    1
    11     4     5   ar
    12     2     1   ar
    13     1     5   ar
    14     1    13    1
    15    13    16    2
    16    13    14   am
    17    15    14    1
    18    14    17    1
    19    21    17   ar
    20    21    20   ar
    21    17    18   ar
    22    20    19   ar
    23    18    19   ar
