@<TRIPOS>MOLECULE
ZINC15911530_replica-1.pdb
 30 32 0 0 0
SMALL
GASTEIGER

@<TRIPOS>ATOM
      1  C4        -0.1560   29.4530   56.1330 C.ar    0  <0>0        0.0915
      2  C5        -0.2030   28.4390   55.0930 C.ar    0  <0>0       -0.0122
      3  C6        -0.6420   28.8680   53.8910 C.ar    0  <0>0        0.0047
      4  S1        -0.9900   30.5880   54.1230 S.2     0  <0>0       -0.0767
      5  C7        -0.5600   30.7380   55.7950 C.ar    0  <0>0        0.0863
      6  C18       -0.7960   28.0550   52.6430 C.3     0  <0>0        0.0327
      7  C19       -0.7350   26.5680   53.0230 C.3     0  <0>0        0.0052
      8  C20        0.4680   26.3430   53.9430 C.3     0  <0>0        0.0050
      9  C21        0.2080   26.9860   55.3070 C.3     0  <0>0        0.0268
     10  C22       -0.5820   25.7210   51.7580 C.3     0  <0>0        0.0004
     11  N1        -0.6050   31.8660   56.5980 N.am    0  <0>0       -0.2805
     12  C8         0.4540   32.6980   56.6520 C.2     0  <0>0        0.2069
     13  O3         1.4470   32.4590   55.9980 O.2     0  <0>0       -0.2770
     14  H8        -1.4000   32.0580   57.1210 H       0  <0>0        0.1553
     15  C9         0.4040   33.9260   57.5250 C.3     0  <0>0        0.0208
     16  C10        0.8720   35.1420   56.7250 C.3     0  <0>0       -0.0135
     17  N2         1.2770   33.7100   58.6980 N.4     0  <0>0        0.3938
     18  C11        1.9970   34.9580   59.0290 C.3     0  <0>0       -0.0998
     19  H35        1.9620   32.9790   58.4750 H       0  <0>0       -0.0789
     20  C12        0.4680   33.2720   59.8550 C.3     0  <0>0       -0.0574
     21  C17        1.1800   32.1040   60.5410 C.3     0  <0>0       -0.0208
     22  C16        0.3660   31.6530   61.7560 C.3     0  <0>0       -0.0021
     23  C15        0.2320   32.8170   62.7400 C.3     0  <0>0       -0.0001
     24  C14       -0.4810   33.9850   62.0540 C.3     0  <0>0       -0.0021
     25  C13        0.3340   34.4350   60.8390 C.3     0  <0>0       -0.0208
     26  C3         0.2990   29.1310   57.4880 C.2     0  <0>0        0.3426
     27  O2         1.2710   29.6950   57.9520 O.2     0  <0>0       -0.2448
     28  O1        -0.3590   28.2080   58.2190 O.3     0  <0>0       -0.4454
     29  C2        -1.7390   28.5020   58.5630 C.3     0  <0>0        0.2089
     30  C1        -2.6670   27.5360   57.8210 C.3     0  <0>0        0.0513
@<TRIPOS>BOND
     1    10     7    1
     2     6     7    1
     3     6     3    1
     4     7     8    1
     5     3     4   ar
     6     3     2   ar
     7     8     9    1
     8     4     5   ar
     9     2     9    1
    10     2     1   ar
    11     5     1   ar
    12     5    11    1
    13    13    12    2
    14     1    26    1
    15    11    12   am
    16    11    14    1
    17    12    15    1
    18    16    15    1
    19    26    27    2
    20    26    28    1
    21    15    17    1
    22    30    29    1
    23    28    29    1
    24    19    17    1
    25    17    18    1
    26    17    20    1
    27    20    21    1
    28    20    25    1
    29    21    22    1
    30    25    24    1
    31    22    23    1
    32    24    23    1
