@<TRIPOS>MOLECULE
ZINC54500248_replica-1.pdb
 27 28 0 0 0
SMALL
GASTEIGER

@<TRIPOS>ATOM
      1  C6        -0.8800   29.6320   56.0890 C.3     0  <0>0        0.1169
      2  N1         0.4330   30.1990   56.4100 N.am    0  <0>0       -0.2986
      3  C5         0.6390   31.5260   56.3020 C.2     0  <0>0        0.2229
      4  O1        -0.2620   32.2520   55.9390 O.2     0  <0>0       -0.2751
      5  H10        1.1540   29.6180   56.7010 H       0  <0>0        0.1500
      6  C4         1.9890   32.1090   56.6330 C.3     0  <0>0        0.0856
      7  C2         2.1060   32.2990   58.1460 C.3     0  <0>0        0.0194
      8  C1         2.6400   31.0140   58.7820 C.3     0  <0>0        0.0011
      9  C3         3.0670   33.4530   58.4420 C.3     0  <0>0        0.0011
     10  C20        0.7280   32.6200   58.7280 C.3     0  <0>0        0.1145
     11  C21        0.5960   34.1100   58.9140 C.2     0  <0>0        0.3649
     12  O3         0.3280   34.8220   57.9610 O.co2   0  <0>0       -0.2457
     13  O4         0.7570   34.6040   60.0170 O.co2   0  <0>0       -0.2457
     14  C7        -1.3950   28.8560   57.2740 C.ar    0  <0>0       -0.0003
     15  C12       -2.4920   28.0260   57.1310 C.ar    0  <0>0       -0.0024
     16  C11       -2.9620   27.3110   58.2170 C.ar    0  <0>0       -0.0003
     17  C10       -2.3400   27.4310   59.4460 C.ar    0  <0>0       -0.0000
     18  C9        -1.2460   28.2640   59.5890 C.ar    0  <0>0       -0.0003
     19  C8        -0.7730   28.9760   58.5030 C.ar    0  <0>0       -0.0024
     20  C13       -0.7520   28.7130   54.9020 C.ar    0  <0>0       -0.0001
     21  C18       -1.4050   29.0170   53.7200 C.ar    0  <0>0        0.0008
     22  C17       -1.2850   28.1780   52.6290 C.ar    0  <0>0        0.0366
     23  C16       -0.5200   27.0260   52.7220 C.ar    0  <0>0        0.1387
     24  C15        0.1280   26.7200   53.9090 C.ar    0  <0>0        0.0366
     25  C14        0.0110   27.5640   54.9960 C.ar    0  <0>0        0.0008
     26  O2        -0.4050   26.1970   51.6500 O.3     0  <0>0       -0.4714
     27  C19       -0.6130   24.8030   51.8820 C.3     0  <0>0        0.2525
@<TRIPOS>BOND
     1    26    27    1
     2    26    23    1
     3    22    23   ar
     4    22    21   ar
     5    23    24   ar
     6    21    20   ar
     7    24    25   ar
     8    20    25   ar
     9    20     1    1
    10     4     3    2
    11     1     2    1
    12     1    14    1
    13     3     2   am
    14     3     6    1
    15     2     5    1
    16     6     7    1
    17    15    14   ar
    18    15    16   ar
    19    14    19   ar
    20    12    11   ar
    21     7     9    1
    22     7    10    1
    23     7     8    1
    24    16    17   ar
    25    19    18   ar
    26    10    11    1
    27    11    13   ar
    28    17    18   ar
