@<TRIPOS>MOLECULE
ZINC03295983_replica-1.pdb
 20 21 0 0 0
SMALL
GASTEIGER

@<TRIPOS>ATOM
      1  C8        -1.2130   29.3380   54.6000 C.2     0  <0>0        0.3220
      2  O1        -1.2150   30.5350   54.4360 O.2     0  <0>0       -0.2497
      3  C7        -0.0250   28.5200   54.1660 C.3     0  <0>0        0.1381
      4  C5        -0.4590   27.5140   53.1300 C.ar    0  <0>0        0.0164
      5  C4        -0.0720   26.1900   53.2450 C.ar    0  <0>0        0.1367
      6  C3        -0.4710   25.2680   52.2930 C.ar    0  <0>0        0.0293
      7  F1         0.6950   25.7990   54.2870 F       0  <0>0       -0.2045
      8  C2        -1.2550   25.6700   51.2290 C.ar    0  <0>0        0.0023
      9  C1        -1.6410   26.9920   51.1150 C.ar    0  <0>0       -0.0002
     10  C6        -1.2470   27.9130   52.0670 C.ar    0  <0>0       -0.0015
     11  O2        -2.2700   28.7360   55.1680 O.3     0  <0>0       -0.4397
     12  C9        -2.6910   29.2300   56.4680 C.3     0  <0>0        0.2771
     13  C10       -1.6930   28.8040   57.5130 C.2     0  <0>0        0.2230
     14  O3        -1.1080   29.6410   58.1720 O.2     0  <0>0       -0.2869
     15  C11       -1.4350   27.4340   57.7260 C.ar    0  <0>0        0.0687
     16  S1        -2.3470   26.2580   58.7120 S.2     0  <0>0       -0.0725
     17  C14       -1.3680   24.8590   58.4210 C.ar    0  <0>0        0.0870
     18  C13       -0.3900   25.3280   57.5940 C.ar    0  <0>0        0.0186
     19 Cl         -1.5820   23.2470   59.0300 Cl      0  <0>0       -0.0752
     20  C12       -0.4040   26.6460   57.2240 C.ar    0  <0>0        0.0109
@<TRIPOS>BOND
     1     9     8   ar
     2     9    10   ar
     3     8     6   ar
     4    10     4   ar
     5     6     5   ar
     6     4     5   ar
     7     4     3    1
     8     5     7    1
     9     3     1    1
    10     2     1    2
    11     1    11    1
    12    11    12    1
    13    12    13    1
    14    20    18   ar
    15    20    15   ar
    16    13    15    1
    17    13    14    2
    18    18    17   ar
    19    15    16   ar
    20    17    16   ar
    21    17    19    1
