@<TRIPOS>MOLECULE
ZINC43267556_replica-1.pdb
 25 28 0 0 0
SMALL
GASTEIGER

@<TRIPOS>ATOM
      1  C9        -0.6580   30.4330   55.6260 C.2     0  <0>0        0.2362
      2  O1        -0.8150   31.2140   54.7120 O.2     0  <0>0       -0.2741
      3  N2        -0.5000   29.1190   55.3700 N.am    0  <0>0       -0.2565
      4  C10        0.0220   28.2140   56.4030 C.3     0  <0>0        0.0986
      5  C11        1.0660   27.3040   55.7430 C.3     0  <0>0        0.0266
      6  C12        0.3770   26.4510   54.6770 C.3     0  <0>0        0.0295
      7  C13       -0.4260   27.3200   53.7460 C.ar    0  <0>0       -0.0040
      8  C14       -0.8380   28.5910   54.1140 C.ar    0  <0>0        0.0775
      9  C15       -1.5890   29.3650   53.2330 C.ar    0  <0>0        0.1556
     10  C16       -1.9290   28.8660   51.9900 C.ar    0  <0>0        0.0605
     11  C17       -1.5210   27.5940   51.6230 C.ar    0  <0>0        0.1422
     12  C18       -0.7640   26.8260   52.4960 C.ar    0  <0>0        0.0267
     13  F1        -1.8520   27.1040   50.4070 F       0  <0>0       -0.2041
     14  F2        -1.9850   30.6050   53.5940 F       0  <0>0       -0.2028
     15  C8        -0.6370   30.9310   57.0490 C.3     0  <0>0        0.1407
     16  C6         0.2570   32.1410   57.1440 C.2     0  <0>0        0.1078
     17  N1         1.4570   32.1160   56.6080 N.2     0  <0>0       -0.4029
     18  C5         2.2620   33.1670   56.6780 C.2     0  <0>0        0.1570
     19  S2         1.2490   34.3200   57.5950 S.3     0  <0>0       -0.0751
     20  C7        -0.1760   33.2570   57.7830 C.3     0  <0>0        0.1193
     21  C4         3.6310   33.3360   56.1470 C.ar    0  <0>0        0.0425
     22  C1         3.8670   34.1260   55.0240 C.ar    0  <0>0        0.0105
     23  C2         5.1320   34.2570   54.5680 C.ar    0  <0>0        0.0356
     24  S1         6.0570   33.2570   55.7220 S.2     0  <0>0       -0.0858
     25  C3         4.6970   32.7210   56.7470 C.ar    0  <0>0        0.0385
@<TRIPOS>BOND
     1    13    11    1
     2    11    10   ar
     3    11    12   ar
     4    10     9   ar
     5    12     7   ar
     6     9    14    1
     7     9     8   ar
     8     7     8   ar
     9     7     6    1
    10     8     3    1
    11    23    22   ar
    12    23    24   ar
    13     6     5    1
    14     2     1    2
    15    22    21   ar
    16     3     1   am
    17     3     4    1
    18     1    15    1
    19    24    25   ar
    20     5     4    1
    21    21    18    1
    22    21    25   ar
    23    17    18    2
    24    17    16    2
    25    18    19    1
    26    15    16    1
    27    16    20    1
    28    19    20    1
