@<TRIPOS>MOLECULE
ZINC39862653_replica-1.pdb
 28 31 0 0 0
SMALL
GASTEIGER

@<TRIPOS>ATOM
      1  N1         6.6000   31.9900   60.0940 N.am    0  <0>0       -0.2129
      2  C7         7.7920   32.5610   60.0290 C.2     0  <0>0        0.2640
      3  O1         8.8000   31.9650   60.3600 O.2     0  <0>0       -0.2686
      4  C8         7.8420   33.9510   59.5380 C.2     0  <0>0        0.0863
      5  C9         8.9120   34.7660   59.3700 C.2     0  <0>0        0.0128
      6  S1         6.1120   34.2710   59.2210 S.3     0  <0>0       -0.0477
      7  C16        5.4690   32.6790   59.7100 C.2     0  <0>0        0.1745
      8  N2         4.2200   32.2650   59.7070 N.2     0  <0>0       -0.2050
      9  C10        8.7250   36.1310   58.8590 C.ar    0  <0>0        0.0218
     10  C15        8.6100   36.3590   57.4820 C.ar    0  <0>0        0.0585
     11  C14        8.4290   37.6440   57.0140 C.ar    0  <0>0        0.0114
     12 Cl          8.6850   35.0290   56.3700 Cl      0  <0>0       -0.0822
     13  C13        8.3740   38.7080   57.8980 C.ar    0  <0>0        0.0017
     14  C12        8.4930   38.4920   59.2610 C.ar    0  <0>0        0.0114
     15  C11        8.6680   37.2130   59.7480 C.ar    0  <0>0        0.0585
     16 Cl          8.8170   36.9450   61.4560 Cl      0  <0>0       -0.0822
     17  C4         6.4870   30.6710   60.5530 C.ar    0  <0>0        0.0602
     18  C3         6.3200   30.4180   61.9080 C.ar    0  <0>0        0.0153
     19  C2         6.2090   29.1170   62.3580 C.ar    0  <0>0        0.0013
     20  C1         6.2640   28.0660   61.4600 C.ar    0  <0>0        0.0001
     21  C6         6.4290   28.3150   60.1100 C.ar    0  <0>0        0.0013
     22  C5         6.5410   29.6140   59.6540 C.ar    0  <0>0        0.0153
     23  C17        3.2260   33.0990   59.2880 C.ar    0  <0>0        0.1643
     24  N3         2.9760   33.2280   57.9870 N.ar    0  <0>0       -0.2250
     25  C21        2.0200   34.0200   57.5450 C.ar    0  <0>0        0.1006
     26  C20        1.2470   34.7590   58.4190 C.ar    0  <0>0        0.0208
     27  C19        1.4770   34.6590   59.7860 C.ar    0  <0>0        0.0047
     28  C18        2.4800   33.8180   60.2280 C.ar    0  <0>0        0.0389
@<TRIPOS>BOND
     1    12    10    1
     2    11    10   ar
     3    11    13   ar
     4    10     9   ar
     5    25    24   ar
     6    25    26   ar
     7    13    14   ar
     8    24    23   ar
     9    26    27   ar
    10     9     5    1
    11     9    15   ar
    12     6     4    1
    13     6     7    1
    14    14    15   ar
    15    23     8    1
    16    23    28   ar
    17     5     4    2
    18     4     2    1
    19    22    21   ar
    20    22    17   ar
    21     8     7    2
    22     7     1    1
    23    15    16    1
    24    27    28   ar
    25     2     1   am
    26     2     3    2
    27     1    17    1
    28    21    20   ar
    29    17    18   ar
    30    20    19   ar
    31    18    19   ar
