@<TRIPOS>MOLECULE
ZINC13649407_replica-1.pdb
 26 27 0 0 0
SMALL
GASTEIGER

@<TRIPOS>ATOM
      1  N1        -0.5000   28.6690   56.7700 N.3     0  <0>0       -0.1771
      2  H10        0.2560   28.0820   56.9270 H       0  <0>0        0.1489
      3  S1        -0.7190   29.3590   55.2810 S.O2    0  <0>0        0.0597
      4  O1        -2.0460   29.8670   55.2590 O.2     0  <0>0       -0.1530
      5  O2         0.4160   30.1810   55.0430 O.2     0  <0>0       -0.1530
      6  C5        -0.6560   28.0610   54.0900 C.ar    0  <0>0        0.1140
      7  C4        -1.2860   28.2130   52.8690 C.ar    0  <0>0       -0.0039
      8  C3        -1.2380   27.1960   51.9350 C.ar    0  <0>0       -0.0072
      9  C19       -2.0250   29.4890   52.5560 C.3     0  <0>0        0.0324
     10  C2        -0.5600   26.0250   52.2210 C.ar    0  <0>0       -0.0224
     11  C1        -0.5070   24.9160   51.2040 C.3     0  <0>0        0.0310
     12  C7         0.0690   25.8730   53.4430 C.ar    0  <0>0       -0.0072
     13  C6         0.0250   26.8940   54.3750 C.ar    0  <0>0       -0.0039
     14  C8         0.7180   26.7310   55.7040 C.3     0  <0>0        0.0324
     15  C9        -1.4480   28.9460   57.8520 C.3     0  <0>0        0.1191
     16  C10       -2.0840   27.6350   58.3200 C.3     0  <0>0        0.0228
     17  C11       -0.7110   29.6020   59.0200 C.3     0  <0>0        0.2226
     18  O3         0.5340   30.1320   58.5610 O.3     0  <0>0       -0.4740
     19  C12        0.7010   31.4790   58.6470 C.ar    0  <0>0        0.1388
     20  C17        1.5670   32.0110   59.5900 C.ar    0  <0>0        0.0400
     21  C16        1.7370   33.3800   59.6780 C.ar    0  <0>0        0.0400
     22  C15        1.0420   34.2210   58.8220 C.ar    0  <0>0        0.1389
     23  C14        0.1760   33.6880   57.8780 C.ar    0  <0>0        0.0400
     24  C13        0.0100   32.3200   57.7880 C.ar    0  <0>0        0.0400
     25  O4         1.2090   35.5670   58.9090 O.3     0  <0>0       -0.4714
     26  C18        2.5090   36.0800   58.6150 C.3     0  <0>0        0.2525
@<TRIPOS>BOND
     1    11    10    1
     2     8    10   ar
     3     8     7   ar
     4    10    12   ar
     5     9     7    1
     6     7     6   ar
     7    12    13   ar
     8     6    13   ar
     9     6     3    1
    10    13    14    1
    11     5     3    2
    12     4     3    2
    13     3     1    1
    14     1     2    1
    15     1    15    1
    16    24    23   ar
    17    24    19   ar
    18    15    16    1
    19    15    17    1
    20    23    22   ar
    21    18    19    1
    22    18    17    1
    23    26    25    1
    24    19    20   ar
    25    22    25    1
    26    22    21   ar
    27    20    21   ar
