@<TRIPOS>MOLECULE
ZINC50004153_replica-1.pdb
 21 22 0 0 0
SMALL
GASTEIGER

@<TRIPOS>ATOM
      1  C5         8.8760   37.0640   58.8080 C.ar    0  <0>0        0.1386
      2  C6         9.1720   37.5120   60.0890 C.ar    0  <0>0        0.0376
      3  C7         9.8630   36.7010   60.9620 C.ar    0  <0>0        0.0134
      4  C8        10.2650   35.4240   60.5570 C.ar    0  <0>0        0.0686
      5  C9         9.9640   34.9780   59.2670 C.ar    0  <0>0        0.0134
      6  C10        9.2690   35.7940   58.4030 C.ar    0  <0>0        0.0376
      7  C11       10.9840   34.5780   61.4610 C.1     0  <0>0        0.1004
      8  N2        11.5530   33.9050   62.1780 N.1     0  <0>0       -0.1908
      9  O1         8.1940   37.8670   57.9510 O.3     0  <0>0       -0.4754
     10  C4         8.2610   37.5390   56.5610 C.3     0  <0>0        0.2072
     11  C3         6.8540   37.5760   55.9610 C.3     0  <0>0        0.0687
     12  C2         6.3470   36.1460   55.7670 C.3     0  <0>0        0.0947
     13  N1         5.2690   35.8770   56.7220 N.pl3   0  <0>0       -0.3056
     14  C1         3.8720   36.0610   56.3210 C.3     0  <0>0        0.1122
     15  C12        5.5730   35.4450   58.0150 C.ar    0  <0>0        0.0501
     16  C17        6.1000   34.1760   58.2190 C.ar    0  <0>0        0.0441
     17  C16        6.4050   33.7530   59.5010 C.ar    0  <0>0        0.1414
     18  C15        6.1750   34.5910   60.5790 C.ar    0  <0>0        0.0297
     19  F1         6.9230   32.5220   59.7000 F       0  <0>0       -0.2041
     20  C14        5.6460   35.8530   60.3780 C.ar    0  <0>0        0.0036
     21  C13        5.3440   36.2820   59.1000 C.ar    0  <0>0        0.0147
@<TRIPOS>BOND
     1    12    11    1
     2    12    13    1
     3    11    10    1
     4    14    13    1
     5    10     9    1
     6    13    15    1
     7     9     1    1
     8    15    16   ar
     9    15    21   ar
    10    16    17   ar
    11     6     1   ar
    12     6     5   ar
    13     1     2   ar
    14    21    20   ar
    15     5     4   ar
    16    17    19    1
    17    17    18   ar
    18     2     3   ar
    19    20    18   ar
    20     4     3   ar
    21     4     7    1
    22     7     8    3
