@<TRIPOS>MOLECULE
ZINC66383317_replica-1.pdb
 13 12 0 0 0
SMALL
GASTEIGER

@<TRIPOS>ATOM
      1  C7        -0.5300   30.1040   55.2540 C.3     0  <0>0        0.0836
      2 Cl          0.7790   31.2660   55.6820 Cl      0  <0>0       -0.1149
      3  C6        -1.1710   30.5230   53.9280 C.3     0  <0>0        0.0164
      4  C5        -1.9890   29.3580   53.3670 C.3     0  <0>0        0.0013
      5  C4        -1.0450   28.2430   52.9150 C.3     0  <0>0        0.0000
      6  C3        -1.4930   27.7150   51.5520 C.3     0  <0>0        0.0000
      7  C2        -1.1530   26.2280   51.4430 C.3     0  <0>0        0.0000
      8  C1        -0.3530   25.7950   52.6730 C.3     0  <0>0        0.0000
      9  C8        -1.5930   30.1050   56.3550 C.3     0  <0>0        0.0624
     10  C9        -1.4770   28.8190   57.1760 C.3     0  <0>0        0.1993
     11 Cl         -3.0760   27.9850   57.2180 Cl      0  <0>0       -0.0827
     12 Cl         -0.2520   27.7330   56.4210 Cl      0  <0>0       -0.0827
     13 Cl         -0.9660   29.2230   58.8580 Cl      0  <0>0       -0.0827
@<TRIPOS>BOND
     1     7     6    1
     2     7     8    1
     3     6     5    1
     4     5     4    1
     5     4     3    1
     6     3     1    1
     7     1     2    1
     8     1     9    1
     9     9    10    1
    10    12    10    1
    11    10    11    1
    12    10    13    1
