@<TRIPOS>MOLECULE
ZINC66199314_replica-1.pdb
 32 33 0 0 0
SMALL
GASTEIGER

@<TRIPOS>ATOM
      1  C9        -0.7550   31.6130   55.7710 C.2     0  <0>0        0.2825
      2  O2        -1.4460   31.3300   56.7260 O.2     0  <0>0       -0.2695
      3  N1         0.0390   32.7020   55.8120 N.am    0  <0>0       -0.2308
      4  H10        0.5920   32.9280   55.0480 H       0  <0>0        0.1729
      5  N2         0.0630   33.5070   56.9570 N.am    0  <0>0       -0.2335
      6  C10        1.2310   33.7530   57.5840 C.2     0  <0>0        0.2416
      7  O3         2.2600   33.2770   57.1550 O.2     0  <0>0       -0.2732
      8  H11       -0.7610   33.8880   57.3000 H       0  <0>0        0.1728
      9  C11        1.2580   34.6190   58.8170 C.3     0  <0>0        0.1002
     10  C12        2.6840   35.1180   59.0580 C.3     0  <0>0        0.0144
     11  C13        0.7990   33.8150   60.0050 C.ar    0  <0>0       -0.0138
     12  C18        1.0990   32.4680   60.0850 C.ar    0  <0>0       -0.0041
     13  C17        0.6820   31.7300   61.1780 C.ar    0  <0>0       -0.0046
     14  C16       -0.0430   32.3370   62.1860 C.ar    0  <0>0       -0.0222
     15  C15       -0.3480   33.6840   62.1040 C.ar    0  <0>0       -0.0046
     16  C14        0.0730   34.4230   61.0130 C.ar    0  <0>0       -0.0041
     17  C19       -0.5020   31.5330   63.3750 C.3     0  <0>0        0.0263
     18  C20       -0.6480   30.0640   62.9710 C.3     0  <0>0        0.0044
     19  C21       -0.1970   29.1710   64.1290 C.3     0  <0>0        0.0003
     20  C22       -2.1130   29.7700   62.6410 C.3     0  <0>0        0.0003
     21  C8        -0.7820   30.7460   54.5380 C.3     0  <0>0        0.2909
     22  O1        -1.5300   29.5590   54.8060 O.3     0  <0>0       -0.4659
     23  C6        -0.9540   28.3760   54.4650 C.ar    0  <0>0        0.1349
     24  C5        -0.2850   27.6290   55.4220 C.ar    0  <0>0        0.0115
     25  C4         0.3020   26.4270   55.0740 C.ar    0  <0>0       -0.0016
     26  C3         0.2220   25.9700   53.7710 C.ar    0  <0>0       -0.0044
     27  C2        -0.4450   26.7140   52.8140 C.ar    0  <0>0       -0.0189
     28  C1        -0.5300   26.2130   51.3960 C.3     0  <0>0        0.0311
     29  C7        -1.0270   27.9190   53.1560 C.ar    0  <0>0        0.0323
     30  C23       -0.1970   28.1260   56.8420 C.3     0  <0>0        0.0253
     31  C24       -1.4640   27.7250   57.6020 C.3     0  <0>0        0.0048
     32  C25        1.0240   27.5080   57.5250 C.3     0  <0>0        0.0048
@<TRIPOS>BOND
     1    28    27    1
     2    27    29   ar
     3    27    26   ar
     4    29    23   ar
     5    26    25   ar
     6    23    22    1
     7    23    24   ar
     8    21    22    1
     9    21     1    1
    10     4     3    1
    11    25    24   ar
    12    24    30    1
    13     1     3   am
    14     1     2    2
    15     3     5    1
    16    30    32    1
    17    30    31    1
    18     5     8    1
    19     5     6   am
    20     7     6    2
    21     6     9    1
    22     9    10    1
    23     9    11    1
    24    11    12   ar
    25    11    16   ar
    26    12    13   ar
    27    16    15   ar
    28    13    14   ar
    29    15    14   ar
    30    14    17    1
    31    20    18    1
    32    18    17    1
    33    18    19    1
