@<TRIPOS>MOLECULE
ZINC55503071_replica-1.pdb
 25 28 0 0 0
SMALL
GASTEIGER

@<TRIPOS>ATOM
      1  C9         8.0140   36.2060   57.4140 C.2     0  <0>0       -0.0004
      2  C10        8.5590   36.4520   56.1970 C.2     0  <0>0        0.0342
      3  S1         7.1410   36.5290   55.1200 S.3     0  <0>0       -0.0588
      4  C11        5.8640   36.2320   56.3150 C.2     0  <0>0        0.1520
      5  C12        6.5670   36.0750   57.5210 C.3     0  <0>0        0.1579
      6  C13        5.7640   35.8130   58.6770 C.2     0  <0>0        0.2386
      7  O1         6.2820   35.6660   59.7700 O.2     0  <0>0       -0.2739
      8  N1         4.4270   35.7330   58.5390 N.am    0  <0>0       -0.2623
      9  H1         3.8790   35.5560   59.3180 H       0  <0>0        0.1569
     10  C14        3.8330   35.8940   57.3290 C.2     0  <0>0        0.1652
     11  N2         4.5380   36.1440   56.2580 N.2     0  <0>0       -0.3883
     12  C5         8.8770   36.0670   58.6120 C.ar    0  <0>0       -0.0066
     13  C4         9.5150   34.8570   58.8790 C.ar    0  <0>0       -0.0009
     14  C3        10.3170   34.7330   59.9950 C.ar    0  <0>0       -0.0043
     15  C2        10.4890   35.8090   60.8480 C.ar    0  <0>0       -0.0222
     16  C1        11.3660   35.6680   62.0660 C.3     0  <0>0        0.0310
     17  C7         9.8540   37.0110   60.5920 C.ar    0  <0>0       -0.0085
     18  C6         9.0540   37.1470   59.4750 C.ar    0  <0>0       -0.0224
     19  C8         8.3680   38.4590   59.1930 C.3     0  <0>0        0.0310
     20  C15        2.3330   35.7970   57.2210 C.3     0  <0>0        0.1044
     21  C16        1.8170   34.7490   58.2090 C.3     0  <0>0        0.1237
     22  O2         2.6070   33.5540   58.1250 O.3     0  <0>0       -0.3558
     23  C19        1.7700   32.4030   58.2990 C.3     0  <0>0        0.1421
     24  C18        0.3190   32.9010   58.4720 C.3     0  <0>0        0.0346
     25  C17        0.3780   34.3150   57.8300 C.3     0  <0>0        0.0326
@<TRIPOS>BOND
     1     3     2    1
     2     3     4    1
     3     2     1    2
     4    11     4    2
     5    11    10    2
     6     4     5    1
     7    20    10    1
     8    20    21    1
     9    10     8    1
    10     1     5    1
    11     1    12    1
    12     5     6    1
    13    25    21    1
    14    25    24    1
    15    22    21    1
    16    22    23    1
    17    23    24    1
    18     8     6   am
    19     8     9    1
    20    12    13   ar
    21    12    18   ar
    22     6     7    2
    23    13    14   ar
    24    19    18    1
    25    18    17   ar
    26    14    15   ar
    27    17    15   ar
    28    15    16    1
