@<TRIPOS>MOLECULE
ZINC51662539_replica-1.pdb
 23 24 0 0 0
SMALL
GASTEIGER

@<TRIPOS>ATOM
      1  C1         0.6840   22.6390   55.2420 C.3     0  <0>0        0.0901
      2  C2         0.5610   24.0680   55.5730 C.1     0  <0>0       -0.0864
      3  C3         0.4630   25.2080   55.8360 C.1     0  <0>0       -0.0439
      4  C4         0.3390   26.6370   56.1650 C.3     0  <0>0        0.2811
      5  O1         0.8490   27.4200   55.0840 O.3     0  <0>0       -0.4616
      6  C5        -0.0580   28.0900   54.3270 C.ar    0  <0>0        0.1339
      7  C14       -0.4730   29.3390   54.6940 C.ar    0  <0>0       -0.0080
      8  C13       -1.3970   30.0410   53.9270 C.ar    0  <0>0       -0.0033
      9  C12       -1.9250   29.5000   52.7930 C.ar    0  <0>0       -0.0002
     10  C11       -1.5290   28.2150   52.3840 C.ar    0  <0>0        0.0029
     11  C6        -0.5840   27.4990   53.1590 C.ar    0  <0>0        0.0336
     12  C10       -2.0520   27.6260   51.2200 C.ar    0  <0>0        0.0001
     13  C7        -0.1890   26.2150   52.7510 C.ar    0  <0>0        0.0030
     14  C8        -0.7170   25.6750   51.6190 C.ar    0  <0>0        0.0001
     15  C9        -1.6470   26.3790   50.8550 C.ar    0  <0>0        0.0000
     16  C15        0.0840   29.9680   55.9450 C.3     0  <0>0       -0.0355
     17  C16        0.7190   31.3180   55.5990 C.3     0  <0>0       -0.0188
     18  N1        -1.0000   30.1710   56.9150 N.4     0  <0>0        0.3890
     19  H16       -0.7160   30.8550   57.6000 H       0  <0>0       -0.0838
     20  H24       -1.8240   30.5000   56.4340 H       0  <0>0       -0.0838
     21  C17       -1.3000   28.9010   57.5880 C.3     0  <0>0       -0.0615
     22  C18       -1.2110   29.0920   59.1030 C.3     0  <0>0       -0.0234
     23  C19       -2.7130   28.4480   57.2140 C.3     0  <0>0       -0.0234
@<TRIPOS>BOND
     1    15    12   ar
     2    15    14   ar
     3    12    10   ar
     4    14    13   ar
     5    10     9   ar
     6    10    11   ar
     7    13    11   ar
     8     9     8   ar
     9    11     6   ar
    10     8     7   ar
    11     6     7   ar
    12     6     5    1
    13     7    16    1
    14     5     4    1
    15     1     2    1
    16     2     3    3
    17    17    16    1
    18     3     4    1
    19    16    18    1
    20    20    18    1
    21    18    21    1
    22    18    19    1
    23    23    21    1
    24    21    22    1
