@<TRIPOS>MOLECULE
ZINC09334252_replica-1.pdb
 29 32 0 0 0
SMALL
GASTEIGER

@<TRIPOS>ATOM
      1  C1         6.1930   31.5000   57.0800 C.3     0  <0>0        0.0286
      2  C2         6.6070   32.9480   56.8100 C.3     0  <0>0        0.1462
      3  C3         5.9700   33.4180   55.5700 C.1     0  <0>0        0.0836
      4  N1         5.4770   33.7810   54.6130 N.1     0  <0>0       -0.1950
      5  S1         6.0820   33.9930   58.1920 S.3     0  <0>0       -0.0517
      6  C4         7.5310   33.9270   59.1930 C.2     0  <0>0        0.2213
      7  N3         8.4150   34.9690   59.1680 N.am    0  <0>0       -0.2067
      8  C13        9.5290   34.9570   59.9230 C.2     0  <0>0        0.2459
      9  C6         9.7900   33.8260   60.7590 C.3     0  <0>0        0.1543
     10  O1        10.3060   35.8960   59.8930 O.2     0  <0>0       -0.2733
     11  C5         8.8320   32.7980   60.7180 C.2     0  <0>0        0.1524
     12  C7        10.9290   33.6030   61.6530 C.2     0  <0>0       -0.0267
     13  N2         7.7500   32.8720   59.9510 N.2     0  <0>0       -0.3772
     14  S2         9.4710   31.5930   61.8530 S.3     0  <0>0       -0.0639
     15  C8        10.9460   32.4450   62.3440 C.2     0  <0>0        0.0023
     16  C9        11.9900   31.9830   63.3150 C.3     0  <0>0        0.0324
     17  C10       13.2380   32.8590   63.1370 C.3     0  <0>0        0.0055
     18  C11       12.8070   34.3280   63.1080 C.3     0  <0>0        0.0047
     19  C12       12.0520   34.6230   61.8110 C.3     0  <0>0        0.0231
     20  C14        8.1530   36.0740   58.3470 C.ar    0  <0>0        0.0647
     21  C19        7.4840   37.1780   58.8580 C.ar    0  <0>0        0.0855
     22  C18        7.2260   38.2650   58.0470 C.ar    0  <0>0        0.0051
     23  C17        7.6400   38.2570   56.7270 C.ar    0  <0>0        0.0000
     24  C16        8.3020   37.1570   56.2140 C.ar    0  <0>0        0.0013
     25  C15        8.5620   36.0670   57.0210 C.ar    0  <0>0        0.0153
     26  C20        7.0370   37.1890   60.2980 C.3     0  <0>0        0.4197
     27  F1         8.1260   37.4890   61.1220 F       0  <0>0       -0.1658
     28  F2         6.0420   38.1580   60.4690 F       0  <0>0       -0.1658
     29  F3         6.5270   35.9320   60.6380 F       0  <0>0       -0.1658
@<TRIPOS>BOND
     1     4     3    3
     2     3     2    1
     3    24    23   ar
     4    24    25   ar
     5    23    22   ar
     6     2     1    1
     7     2     5    1
     8    25    20   ar
     9    22    21   ar
    10     5     6    1
    11    20    21   ar
    12    20     7    1
    13    21    26    1
    14     7     6    1
    15     7     8   am
    16     6    13    2
    17    10     8    2
    18     8     9    1
    19    13    11    2
    20    26    28    1
    21    26    29    1
    22    26    27    1
    23    11     9    1
    24    11    14    1
    25     9    12    1
    26    12    19    1
    27    12    15    2
    28    19    18    1
    29    14    15    1
    30    15    16    1
    31    18    17    1
    32    17    16    1
