@<TRIPOS>MOLECULE
ZINC20135155_replica-1.pdb
 21 22 0 0 0
SMALL
GASTEIGER

@<TRIPOS>ATOM
      1  C7         8.7610   35.9980   59.4380 C.3     0  <0>0        0.0919
      2  N3         9.2350   35.5770   58.1130 N.pl3   0  <0>0       -0.3287
      3  H11       10.2160   35.0900   58.0090 H       0  <0>0        0.1471
      4  C3         8.2900   35.8870   57.1160 C.ar    0  <0>0        0.0736
      5  C2         7.9770   37.1700   56.6460 C.ar    0  <0>0        0.0931
      6  C1         8.5980   38.4590   57.1220 C.3     0  <0>0        0.0553
      7  N2         7.0580   37.0590   55.7230 N.ar    0  <0>0       -0.1726
      8  N1         6.7430   35.7020   55.5760 N.ar    0  <0>0       -0.2519
      9  C4         7.5150   34.9980   56.4450 C.ar    0  <0>0        0.0702
     10  C5         5.7560   35.1410   54.6500 C.3     0  <0>0        0.1533
     11  C6         7.5120   33.5020   56.6310 C.3     0  <0>0        0.0531
     12  C8         7.5400   35.1630   59.8310 C.3     0  <0>0        0.0241
     13  C9         6.3900   36.0940   60.2190 C.3     0  <0>0        0.0020
     14  C10        5.2210   35.8890   59.2520 C.3     0  <0>0        0.0001
     15  C11        6.8630   37.5470   60.1460 C.3     0  <0>0        0.0001
     16  C12        9.8560   35.7950   60.4520 C.ar    0  <0>0       -0.0046
     17  C17       10.1340   36.7830   61.3770 C.ar    0  <0>0       -0.0027
     18  C16       11.1400   36.5960   62.3070 C.ar    0  <0>0       -0.0003
     19  C15       11.8660   35.4210   62.3130 C.ar    0  <0>0       -0.0000
     20  C14       11.5880   34.4320   61.3880 C.ar    0  <0>0       -0.0003
     21  C13       10.5800   34.6160   60.4610 C.ar    0  <0>0       -0.0027
@<TRIPOS>BOND
     1    10     8    1
     2     8     7   ar
     3     8     9   ar
     4     7     5   ar
     5     9    11    1
     6     9     4   ar
     7     5     4   ar
     8     5     6    1
     9     4     2    1
    10     3     2    1
    11     2     1    1
    12    14    13    1
    13     1    12    1
    14     1    16    1
    15    12    13    1
    16    15    13    1
    17    16    21   ar
    18    16    17   ar
    19    21    20   ar
    20    17    18   ar
    21    20    19   ar
    22    18    19   ar
