@<TRIPOS>MOLECULE
ZINC42328355_replica-1.pdb
 20 22 0 0 0
SMALL
GASTEIGER

@<TRIPOS>ATOM
      1  N1         0.2600   28.9130   56.6430 N.pl3   0  <0>0       -0.3302
      2  H13        1.1190   28.8040   57.0800 H       0  <0>0        0.1471
      3  C7         0.0300   28.3220   55.3980 C.ar    0  <0>0        0.0448
      4  C6        -0.6930   29.0040   54.4270 C.ar    0  <0>0        0.0140
      5  C5        -0.9190   28.4170   53.1980 C.ar    0  <0>0       -0.0030
      6  C4        -0.4260   27.1520   52.9320 C.ar    0  <0>0       -0.0224
      7  C9         0.2890   26.4690   53.8990 C.ar    0  <0>0       -0.0030
      8  C8         0.5240   27.0520   55.1280 C.ar    0  <0>0        0.0140
      9  C2        -0.6750   26.5140   51.5900 C.3     0  <0>0        0.0224
     10  C1        -0.8070   25.0000   51.7620 C.3     0  <0>0        0.0047
     11  C3        -1.9670   27.0740   50.9910 C.3     0  <0>0        0.0047
     12  C10       -0.7960   29.6980   57.2880 C.3     0  <0>0        0.0978
     13  C11       -0.2200   30.9960   57.7920 C.ar    0  <0>0        0.0250
     14  S1         0.7010   31.3110   59.2900 S.2     0  <0>0       -0.0892
     15  C14        0.9620   33.0610   59.0610 C.ar    0  <0>0        0.0352
     16  C13        0.3350   33.2870   57.8810 C.ar    0  <0>0        0.0072
     17  C12       -0.2710   32.2280   57.2300 C.ar    0  <0>0        0.0043
     18  C15       -1.3750   28.9060   58.4610 C.3     0  <0>0        0.0226
     19  C17       -2.3340   27.7600   58.1350 C.3     0  <0>0        0.0021
     20  C16       -0.9190   27.4550   58.6290 C.3     0  <0>0        0.0021
@<TRIPOS>BOND
     1    11     9    1
     2     9    10    1
     3     9     6    1
     4     6     5   ar
     5     6     7   ar
     6     5     4   ar
     7     7     8   ar
     8     4     3   ar
     9     8     3   ar
    10     3     1    1
    11     1     2    1
    12     1    12    1
    13    17    13   ar
    14    17    16   ar
    15    12    13    1
    16    12    18    1
    17    13    14   ar
    18    16    15   ar
    19    19    18    1
    20    19    20    1
    21    18    20    1
    22    15    14   ar
