@<TRIPOS>MOLECULE
ZINC13110834_replica-1.pdb
 21 23 0 0 0
SMALL
GASTEIGER

@<TRIPOS>ATOM
      1  C9        -0.3530   31.3320   56.0510 C.2     0  <0>0        0.2125
      2  N1        -0.0300   32.6530   55.9760 N.am    0  <0>0       -0.2541
      3  H1        -0.1340   33.1350   55.1390 H       0  <0>0        0.1577
      4  C10        0.4350   33.2860   57.0710 C.2     0  <0>0        0.2342
      5  O1         0.7350   34.4670   57.0220 O.2     0  <0>0       -0.2743
      6  C11        0.5710   32.5630   58.2760 C.3     0  <0>0        0.1248
      7  C12        0.2270   31.2500   58.2960 C.2     0  <0>0        0.0972
      8  N2        -0.2290   30.6680   57.1800 N.2     0  <0>0       -0.3889
      9  C13        0.3200   30.4050   59.5400 C.3     0  <0>0        0.0550
     10  C14        1.2300   31.0660   60.5720 C.3     0  <0>0        0.0071
     11  C15        0.7750   32.5190   60.7600 C.3     0  <0>0        0.0013
     12  C16        1.0980   33.2910   59.4820 C.3     0  <0>0        0.0159
     13  S1        -0.9520   30.5010   54.6170 S.3     0  <0>0       -0.0621
     14  C8        -0.3180   28.8110   54.7930 C.3     0  <0>0        0.0918
     15  C7        -0.6610   28.0150   53.5600 C.ar    0  <0>0       -0.0148
     16  C2        -0.2420   26.7020   53.4470 C.ar    0  <0>0       -0.0250
     17  C1         0.5560   26.0670   54.5570 C.3     0  <0>0        0.0307
     18  C3        -0.5610   25.9700   52.3180 C.ar    0  <0>0       -0.0045
     19  C4        -1.2930   26.5520   51.3000 C.ar    0  <0>0       -0.0003
     20  C5        -1.7060   27.8660   51.4120 C.ar    0  <0>0       -0.0003
     21  C6        -1.3890   28.5990   52.5400 C.ar    0  <0>0       -0.0037
@<TRIPOS>BOND
     1    19    20   ar
     2    19    18   ar
     3    20    21   ar
     4    18    16   ar
     5    21    15   ar
     6    16    15   ar
     7    16    17    1
     8    15    14    1
     9    13    14    1
    10    13     1    1
    11     3     2    1
    12     2     1    1
    13     2     4   am
    14     1     8    2
    15     5     4    2
    16     4     6    1
    17     8     7    2
    18     6     7    1
    19     6    12    1
    20     7     9    1
    21    12    11    1
    22     9    10    1
    23    10    11    1
