@<TRIPOS>MOLECULE
ZINC06834281_replica-1.pdb
 32 35 0 0 0
SMALL
GASTEIGER

@<TRIPOS>ATOM
      1  C11       -0.4730   29.0150   54.4800 C.3     0  <0>0        0.0582
      2  C10       -1.3190   28.5870   55.6520 C.ar    0  <0>0        0.0005
      3  C7        -0.8820   27.7810   56.7950 C.ar    0  <0>0        0.0130
      4  C6         0.3310   27.1930   57.1610 C.ar    0  <0>0        0.0012
      5  C8        -2.0090   27.6400   57.6250 C.ar    0  <0>0        0.0523
      6  C5         0.4170   26.4840   58.3240 C.ar    0  <0>0       -0.0002
      7  C4        -0.6910   26.3460   59.1500 C.ar    0  <0>0       -0.0028
      8  C3        -1.8980   26.9130   58.8050 C.ar    0  <0>0       -0.0066
      9  N1        -3.0460   28.3140   57.0200 N.ar    0  <0>0       -0.3525
     10  H1        -3.9470   28.3830   57.3740 H       0  <0>0        0.1660
     11  C9        -2.6170   28.8700   55.8460 C.ar    0  <0>0        0.0684
     12  C2        -3.0940   26.7500   59.7080 C.3     0  <0>0        0.0278
     13  C1        -2.7650   27.3010   61.0970 C.3     0  <0>0        0.0051
     14  C12       -0.6020   30.5260   54.2830 C.3     0  <0>0        0.0939
     15  C13       -0.0460   31.2390   55.4890 C.2     0  <0>0        0.2231
     16  O1        -0.7570   31.9750   56.1390 O.2     0  <0>0       -0.2751
     17  N2         1.2420   31.0580   55.8460 N.am    0  <0>0       -0.3043
     18  H14        1.8100   30.4680   55.3260 H       0  <0>0        0.1494
     19  C14        1.7810   31.7510   57.0190 C.3     0  <0>0        0.0894
     20  C15        1.7950   30.7940   58.2130 C.3     0  <0>0        0.0212
     21  C16        0.7350   31.2300   59.2280 C.3     0  <0>0        0.0017
     22  C17       -0.0230   30.0010   59.7330 C.3     0  <0>0        0.0001
     23  C18        1.4150   31.9300   60.4050 C.3     0  <0>0        0.0001
     24  C19       -0.9430   28.3040   53.2360 C.ar    0  <0>0        0.0192
     25  C24       -0.5210   27.0110   52.9770 C.ar    0  <0>0        0.1727
     26  C23       -0.9600   26.3550   51.8290 C.ar    0  <0>0        0.1761
     27  O2         0.2930   26.1670   53.6770 O.3     0  <0>0       -0.4349
     28  C22       -1.8080   27.0040   50.9480 C.ar    0  <0>0        0.0402
     29  O3        -0.4150   25.1040   51.8060 O.3     0  <0>0       -0.4346
     30  C21       -2.2210   28.2970   51.2100 C.ar    0  <0>0        0.0030
     31  C20       -1.7900   28.9460   52.3520 C.ar    0  <0>0       -0.0007
     32  C25        0.0280   24.8520   53.1530 C.3     0  <0>0        0.4294
@<TRIPOS>BOND
     1    28    30   ar
     2    28    26   ar
     3    30    31   ar
     4    29    26    1
     5    29    32    1
     6    26    25   ar
     7    31    24   ar
     8    25    24   ar
     9    25    27    1
    10    32    27    1
    11    24     1    1
    12    14     1    1
    13    14    15    1
    14     1     2    1
    15    18    17    1
    16    15    17   am
    17    15    16    2
    18     2    11   ar
    19     2     3   ar
    20    11     9   ar
    21    17    19    1
    22     3     4   ar
    23     3     5   ar
    24    19    20    1
    25     9    10    1
    26     9     5   ar
    27     4     6   ar
    28     5     8   ar
    29    20    21    1
    30     6     7   ar
    31     8     7   ar
    32     8    12    1
    33    21    22    1
    34    21    23    1
    35    12    13    1
