@<TRIPOS>MOLECULE
ZINC66360615_replica-1.pdb
 31 33 0 0 0
SMALL
GASTEIGER

@<TRIPOS>ATOM
      1  C8        -0.6150   30.1410   55.9110 C.3     0  <0>0        0.1182
      2  C5        -0.8180   29.3320   54.6570 C.ar    0  <0>0       -0.0003
      3  C4        -1.7160   29.7600   53.6960 C.ar    0  <0>0       -0.0027
      4  C3        -1.9030   29.0180   52.5450 C.ar    0  <0>0       -0.0045
      5  C2        -1.1920   27.8480   52.3540 C.ar    0  <0>0       -0.0219
      6  C1        -1.3950   27.0380   51.0990 C.3     0  <0>0        0.0310
      7  C7        -0.2980   27.4170   53.3160 C.ar    0  <0>0       -0.0045
      8  C6        -0.1080   28.1620   54.4660 C.ar    0  <0>0       -0.0027
      9  C9        -1.1070   29.3570   57.1000 C.ar    0  <0>0       -0.0001
     10  C14       -0.5110   29.5320   58.3360 C.ar    0  <0>0        0.0008
     11  C13       -0.9640   28.8180   59.4290 C.ar    0  <0>0        0.0366
     12  C12       -2.0090   27.9180   59.2830 C.ar    0  <0>0        0.1387
     13  C11       -2.6010   27.7410   58.0410 C.ar    0  <0>0        0.0366
     14  C10       -2.1480   28.4590   56.9530 C.ar    0  <0>0        0.0008
     15  O1        -2.4530   27.2120   60.3560 O.3     0  <0>0       -0.4714
     16  C15       -2.3580   27.8440   61.6350 C.3     0  <0>0        0.2525
     17  N1         0.8110   30.4350   56.0760 N.am    0  <0>0       -0.2828
     18  C16        1.2200   31.7060   56.2610 C.2     0  <0>0        0.3049
     19  O2         0.4060   32.6080   56.2920 O.2     0  <0>0       -0.2525
     20  N2         2.5310   31.9770   56.4120 N.am    0  <0>0       -0.2685
     21  H17        3.1730   31.2510   56.4700 H       0  <0>0        0.1564
     22  H16        1.4610   29.7150   56.0510 H       0  <0>0        0.1515
     23  C17        2.9680   33.3040   56.4870 C.ar    0  <0>0        0.0499
     24  C22        3.0590   33.9380   57.7190 C.ar    0  <0>0        0.0208
     25  C21        3.4960   35.2470   57.7900 C.ar    0  <0>0       -0.0006
     26  C20        3.8310   35.9280   56.6350 C.ar    0  <0>0       -0.0002
     27  C19        3.7350   35.3020   55.4060 C.ar    0  <0>0        0.0013
     28  C18        3.3050   33.9920   55.3290 C.ar    0  <0>0        0.0145
     29  C23        2.6890   33.1970   58.9780 C.3     0  <0>0        0.1699
     30  O3         1.8850   34.0390   59.8080 O.3     0  <0>0       -0.3463
     31  C24        0.4800   33.8540   59.6340 C.3     0  <0>0        0.1746
@<TRIPOS>BOND
     1     6     5    1
     2     5     4   ar
     3     5     7   ar
     4     4     3   ar
     5     7     8   ar
     6     3     2   ar
     7     8     2   ar
     8     2     1    1
     9    28    27   ar
    10    28    23   ar
    11    27    26   ar
    12     1    17    1
    13     1     9    1
    14    22    17    1
    15    17    18   am
    16    18    19    2
    17    18    20   am
    18    20    21    1
    19    20    23    1
    20    23    24   ar
    21    26    25   ar
    22    14     9   ar
    23    14    13   ar
    24     9    10   ar
    25    24    25   ar
    26    24    29    1
    27    13    12   ar
    28    10    11   ar
    29    29    30    1
    30    12    11   ar
    31    12    15    1
    32    31    30    1
    33    15    16    1
