@<TRIPOS>MOLECULE
ZINC00154469_replica-1.pdb
 21 23 0 0 0
SMALL
GASTEIGER

@<TRIPOS>ATOM
      1  C7         9.1490   34.9610   59.8980 C.2     0  <0>0        0.0081
      2  C8        10.3460   34.7490   60.5800 C.2     0  <0>0        0.0307
      3  C9        10.5310   33.5580   61.2760 C.2     0  <0>0        0.1410
      4  N1         9.5930   32.6180   61.2910 N.2     0  <0>0       -0.3644
      5  C10        8.4430   32.7670   60.6560 C.1     0  <0>0        0.0346
      6  C11        8.1720   33.9420   59.9330 C.3     0  <0>0        0.1986
      7  C12        6.9270   34.1040   59.2450 C.1     0  <0>0        0.0919
      8  N2         5.9380   34.2320   58.6990 N.1     0  <0>0       -0.1945
      9  S1         7.2400   31.4810   60.7160 S.2     0  <0>0        0.0206
     10  C4         8.9110   36.2180   59.1520 C.ar    0  <0>0       -0.0019
     11  C3         8.8270   36.2000   57.7590 C.ar    0  <0>0       -0.0003
     12  C2         8.6050   37.3740   57.0690 C.ar    0  <0>0       -0.0000
     13  C1         8.4660   38.5670   57.7550 C.ar    0  <0>0       -0.0000
     14  C6         8.5490   38.5910   59.1360 C.ar    0  <0>0       -0.0000
     15  C5         8.7700   37.4240   59.8380 C.ar    0  <0>0       -0.0003
     16  C13       11.8010   33.3320   62.0080 C.ar    0  <0>0        0.0304
     17  C18       12.8350   34.2630   61.9180 C.ar    0  <0>0        0.0026
     18  C17       14.0150   34.0490   62.6010 C.ar    0  <0>0        0.0001
     19  C16       14.1710   32.9130   63.3750 C.ar    0  <0>0        0.0000
     20  C15       13.1490   31.9860   63.4690 C.ar    0  <0>0        0.0001
     21  C14       11.9630   32.1930   62.7940 C.ar    0  <0>0        0.0026
@<TRIPOS>BOND
     1    12    13   ar
     2    12    11   ar
     3    13    14   ar
     4    11    10   ar
     5     8     7    3
     6    14    15   ar
     7    10    15   ar
     8    10     1    1
     9     7     6    1
    10     1     6    1
    11     1     2    2
    12     6     5    1
    13     2     3    1
    14     5     9    2
    15     5     4    2
    16     3     4    2
    17     3    16    1
    18    17    16   ar
    19    17    18   ar
    20    16    21   ar
    21    18    19   ar
    22    21    20   ar
    23    19    20   ar
