@<TRIPOS>MOLECULE
ZINC20814058_replica-1.pdb
 20 22 0 0 0
SMALL
GASTEIGER

@<TRIPOS>ATOM
      1  C1         6.9750   37.9610   59.3480 C.3     0  <0>0        0.0164
      2  C2         7.5490   36.9280   58.3740 C.3     0  <0>0        0.0496
      3  C3         6.4050   36.2830   57.5880 C.3     0  <0>0        0.0378
      4  C4         5.5830   35.4300   58.5510 C.2     0  <0>0       -0.0255
      5  C5         6.1090   35.0640   59.7390 C.2     0  <0>0        0.0185
      6  S1         4.8450   34.1050   60.5270 S.3     0  <0>0       -0.0617
      7  C6         3.6100   34.1970   59.2560 C.2     0  <0>0        0.1616
      8  C7         4.2260   34.9760   58.2550 C.3     0  <0>0        0.1374
      9  C8         3.4400   35.2130   57.0920 C.2     0  <0>0        0.1579
     10  N1         2.2190   34.7060   57.0220 N.2     0  <0>0       -0.3323
     11  C9         1.6990   33.9790   58.0040 C.1     0  <0>0        0.1685
     12  N2         2.3870   33.7260   59.1110 N.2     0  <0>0       -0.3320
     13  C12        7.4720   35.4070   60.2570 C.3     0  <0>0        0.1051
     14  N3         8.2830   35.9030   59.1280 N.3     0  <0>0       -0.2696
     15  C13        9.5760   36.4190   59.5970 C.3     0  <0>0        0.0898
     16  C14        8.5020   37.6240   57.4010 C.3     0  <0>0        0.0164
     17  S3         4.0830   36.1720   55.7610 S.3     0  <0>0       -0.0842
     18  C11        4.3300   34.8710   54.5270 C.3     0  <0>0        0.0764
     19  S2         0.0670   33.3390   57.8350 S.3     0  <0>0       -0.0172
     20  C10        0.2970   32.2640   56.3970 C.3     0  <0>0        0.0872
@<TRIPOS>BOND
     1    18    17    1
     2    17     9    1
     3    20    19    1
     4    10     9    2
     5    10    11    2
     6     9     8    1
     7    16     2    1
     8     3     2    1
     9     3     4    1
    10    19    11    1
    11    11    12    2
    12     8     4    1
    13     8     7    1
    14     2    14    1
    15     2     1    1
    16     4     5    2
    17    12     7    2
    18    14    15    1
    19    14    13    1
    20     7     6    1
    21     5    13    1
    22     5     6    1
