@<TRIPOS>MOLECULE
ZINC01608991_replica-1.pdb
 24 25 0 0 0
SMALL
GASTEIGER

@<TRIPOS>ATOM
      1  C10        7.3650   36.7500   57.1290 C.3     0  <0>0        0.1024
      2  C3         8.2270   35.5130   57.3900 C.3     0  <0>0        0.0350
      3  C2         7.3270   34.2860   57.5360 C.3     0  <0>0        0.0052
      4  C1         7.6870   33.2580   56.4610 C.3     0  <0>0        0.0004
      5  C4         9.0180   35.7120   58.6570 C.ar    0  <0>0       -0.0217
      6  C9         9.8480   34.7070   59.1180 C.ar    0  <0>0       -0.0037
      7  C8        10.5750   34.8890   60.2800 C.ar    0  <0>0        0.0064
      8  C7        10.4700   36.0770   60.9820 C.ar    0  <0>0        0.0345
      9  C6         9.6430   37.0840   60.5180 C.ar    0  <0>0        0.0064
     10 Br         11.4640   36.3260   62.5710 Br      0  <0>0       -0.0490
     11  C5         8.9140   36.8990   59.3580 C.ar    0  <0>0       -0.0037
     12  C11        5.9110   36.3940   57.2990 C.ar    0  <0>0       -0.0134
     13  C16        5.3630   36.3200   58.5670 C.ar    0  <0>0       -0.0007
     14  C15        4.0290   35.9940   58.7250 C.ar    0  <0>0        0.0366
     15  C14        3.2410   35.7400   57.6120 C.ar    0  <0>0        0.1387
     16  C13        3.7950   35.8130   56.3420 C.ar    0  <0>0        0.0366
     17  C12        5.1270   36.1460   56.1880 C.ar    0  <0>0       -0.0007
     18  O1         1.9290   35.4180   57.7650 O.3     0  <0>0       -0.4714
     19  C17        1.4380   35.3180   59.1030 C.3     0  <0>0        0.2525
     20  C18        7.6010   37.2410   55.7240 C.2     0  <0>0        0.2233
     21  O2         7.8780   36.4520   54.8450 O.2     0  <0>0       -0.2750
     22  N1         7.5030   38.5550   55.4430 N.am    0  <0>0       -0.3285
     23  H19        7.2810   39.1860   56.1460 H       0  <0>0        0.1450
     24  H20        7.6550   38.8710   54.5390 H       0  <0>0        0.1450
@<TRIPOS>BOND
     1    24    22    1
     2    21    20    2
     3    22    20   am
     4    22    23    1
     5    20     1    1
     6    17    16   ar
     7    17    12   ar
     8    16    15   ar
     9     4     3    1
    10     1    12    1
    11     1     2    1
    12    12    13   ar
    13     2     3    1
    14     2     5    1
    15    15    18    1
    16    15    14   ar
    17    18    19    1
    18    13    14   ar
    19     5     6   ar
    20     5    11   ar
    21     6     7   ar
    22    11     9   ar
    23     7     8   ar
    24     9     8   ar
    25     8    10    1
