@<TRIPOS>MOLECULE
ZINC37069747_replica-1.pdb
 18 18 0 0 0
SMALL
GASTEIGER

@<TRIPOS>ATOM
      1  N1        -0.6090   29.4220   55.0780 N.pl3   0  <0>0       -0.3339
      2  H16        0.1300   30.0500   55.1030 H       0  <0>0        0.1468
      3  C2        -1.7580   29.6060   55.9670 C.3     0  <0>0        0.0714
      4  C1        -2.5700   30.8180   55.5070 C.3     0  <0>0        0.0212
      5  C3        -1.2640   29.8370   57.3970 C.3     0  <0>0        0.0467
      6  C4        -1.2570   28.5070   58.1540 C.3     0  <0>0        0.0946
      7  C5        -1.2330   28.7780   59.6600 C.3     0  <0>0        0.0297
      8  C6        -2.5160   27.7110   57.8000 C.3     0  <0>0        0.0297
      9  O1        -0.0990   27.7550   57.7870 O.3     0  <0>0       -0.3558
     10  C7         1.1290   28.3100   58.2620 C.3     0  <0>0        0.1739
     11  C8        -0.5770   28.3400   54.1920 C.ar    0  <0>0        0.0469
     12  C13       -1.2300   28.4240   52.9700 C.ar    0  <0>0        0.0448
     13  C12       -1.1920   27.3550   52.0930 C.ar    0  <0>0        0.1518
     14  C11       -0.5120   26.1980   52.4390 C.ar    0  <0>0        0.0851
     15  F1        -1.8240   27.4360   50.9010 F       0  <0>0       -0.2032
     16  C10        0.1350   26.1120   53.6590 C.ar    0  <0>0        0.0149
     17 Cl         -0.4710   24.8550   51.3410 Cl      0  <0>0       -0.0799
     18  C9         0.1040   27.1800   54.5350 C.ar    0  <0>0        0.0153
@<TRIPOS>BOND
     1    15    13    1
     2    17    14    1
     3    13    14   ar
     4    13    12   ar
     5    14    16   ar
     6    12    11   ar
     7    16    18   ar
     8    11    18   ar
     9    11     1    1
    10     1     2    1
    11     1     3    1
    12     4     3    1
    13     3     5    1
    14     5     6    1
    15     9     6    1
    16     9    10    1
    17     8     6    1
    18     6     7    1
