@<TRIPOS>MOLECULE
ZINC46078225_replica-1.pdb
 27 29 0 0 0
SMALL
GASTEIGER

@<TRIPOS>ATOM
      1  N1         6.4660   35.1600   57.1370 N.ar    0  <0>0       -0.1943
      2  C9         7.0720   33.9720   57.3520 C.ar    0  <0>0        0.1809
      3  N2         6.6160   33.1370   56.4550 N.ar    0  <0>0       -0.1107
      4  N3         5.7630   33.7150   55.6890 N.ar    0  <0>0       -0.0226
      5  N4         5.6110   34.9460   56.0410 N.ar    0  <0>0       -0.0388
      6  C10        8.0850   33.6670   58.4240 C.3     0  <0>0        0.1089
      7  C11        7.4170   33.7510   59.7980 C.3     0  <0>0        0.0274
      8  C12        8.6420   32.2570   58.2140 C.3     0  <0>0        0.0253
      9  C13        8.1310   31.3360   59.3230 C.3     0  <0>0        0.0022
     10  N5         9.1790   34.6380   58.3520 N.pl3   0  <0>0       -0.3296
     11  H17        9.4560   34.9940   57.4940 H       0  <0>0        0.1471
     12  C14        9.8220   35.0540   59.5200 C.ar    0  <0>0        0.0448
     13  C19        9.5960   36.3290   60.0240 C.ar    0  <0>0        0.0140
     14  C18       10.2300   36.7340   61.1810 C.ar    0  <0>0       -0.0030
     15  C17       11.0970   35.8770   61.8340 C.ar    0  <0>0       -0.0218
     16  C16       11.3290   34.6090   61.3330 C.ar    0  <0>0       -0.0030
     17  C20       11.7910   36.3260   63.0950 C.3     0  <0>0        0.0310
     18  C15       10.6930   34.1950   60.1790 C.ar    0  <0>0        0.0140
     19  C8         6.6460   36.3500   57.8570 C.ar    0  <0>0        0.0779
     20  C3         5.9090   36.5840   59.0100 C.ar    0  <0>0       -0.0047
     21  C4         6.0930   37.7540   59.7210 C.ar    0  <0>0       -0.0028
     22  C5         7.0060   38.6940   59.2820 C.ar    0  <0>0       -0.0005
     23  C6         7.7380   38.4670   58.1300 C.ar    0  <0>0       -0.0028
     24  C7         7.5580   37.2990   57.4150 C.ar    0  <0>0       -0.0044
     25  C21        8.3550   37.0530   56.1610 C.3     0  <0>0        0.0326
     26  C2         4.9130   35.5590   59.4890 C.3     0  <0>0        0.0279
     27  C1         3.5430   35.8510   58.8720 C.3     0  <0>0        0.0051
@<TRIPOS>BOND
     1     4     5   ar
     2     4     3   ar
     3     5     1   ar
     4    25    24    1
     5     3     2   ar
     6     1     2   ar
     7     1    19    1
     8     2     6    1
     9    24    19   ar
    10    24    23   ar
    11    11    10    1
    12    19    20   ar
    13    23    22   ar
    14     8     6    1
    15     8     9    1
    16    10     6    1
    17    10    12    1
    18     6     7    1
    19    27    26    1
    20    20    26    1
    21    20    21   ar
    22    22    21   ar
    23    12    13   ar
    24    12    18   ar
    25    13    14   ar
    26    18    16   ar
    27    14    15   ar
    28    16    15   ar
    29    15    17    1
