@<TRIPOS>MOLECULE
ZINC39458304_replica-1.pdb
 28 31 0 0 0
SMALL
GASTEIGER

@<TRIPOS>ATOM
      1  C1         8.8020   37.6880   57.7820 C.3     0  <0>0        0.0510
      2  C2         7.8940   36.5470   58.1650 C.ar    0  <0>0        0.0481
      3  C3         8.0480   35.7350   59.2510 C.ar    0  <0>0        0.0130
      4  C4         6.9890   34.8110   59.2340 C.ar    0  <0>0       -0.0024
      5  C5         6.2190   35.0750   58.1350 C.ar    0  <0>0        0.0836
      6  N1         6.7830   36.1570   57.4910 N.ar    0  <0>0       -0.2836
      7  C7         5.0100   34.3670   57.6840 C.ar    0  <0>0        0.1007
      8  C8         4.0810   33.7650   58.5410 C.ar    0  <0>0        0.0595
      9  C9         2.8880   33.2400   57.9630 C.ar    0  <0>0        0.0310
     10  C10        2.7490   33.2460   56.5800 C.ar    0  <0>0        0.0269
     11  C11        3.7570   33.7820   55.8050 C.ar    0  <0>0        0.0994
     12  N2         4.8220   34.3170   56.3590 N.ar    0  <0>0       -0.2422
     13  C13        4.2120   33.5750   59.9270 C.2     0  <0>0        0.1754
     14  O1         3.2620   33.0520   60.4720 O.2     0  <0>0       -0.2913
     15  C14        5.3290   33.9170   60.8110 C.3     0  <0>0        0.0739
     16  C15        6.7060   33.7180   60.2190 C.3     0  <0>0        0.0360
     17  C16        9.1320   35.8140   60.2630 C.ar    0  <0>0        0.0346
     18  C21        9.0370   36.7150   61.3250 C.ar    0  <0>0        0.1336
     19  C20       10.0490   36.7770   62.2690 C.ar    0  <0>0        0.0366
     20  C19       11.1560   35.9570   62.1500 C.ar    0  <0>0        0.0031
     21  C18       11.2560   35.0660   61.0960 C.ar    0  <0>0        0.0002
     22  C17       10.2500   34.9910   60.1530 C.ar    0  <0>0        0.0030
     23  O2         7.9510   37.5260   61.4370 O.3     0  <0>0       -0.5055
     24  H20        7.2460   37.3280   60.8050 H       0  <0>0        0.2922
     25  S1         6.1990   36.8620   56.1120 S.3     0  <0>0       -0.0322
     26  C6         7.4060   36.4020   54.8390 C.3     0  <0>0        0.0938
     27  S2         1.6080   32.5920   58.9850 S.3     0  <0>0       -0.1125
     28  C12        0.2800   33.8220   58.8620 C.3     0  <0>0        0.0742
@<TRIPOS>BOND
     1    26    25    1
     2    11    12   ar
     3    11    10   ar
     4    25     6    1
     5    12     7   ar
     6    10     9   ar
     7     6     5   ar
     8     6     2   ar
     9     7     5    1
    10     7     8   ar
    11     1     2    1
    12     9     8   ar
    13     9    27    1
    14     5     4   ar
    15     2     3   ar
    16     8    13    1
    17    28    27    1
    18     4     3   ar
    19     4    16    1
    20     3    17    1
    21    13    14    2
    22    13    15    1
    23    22    17   ar
    24    22    21   ar
    25    16    15    1
    26    17    18   ar
    27    24    23    1
    28    21    20   ar
    29    18    23    1
    30    18    19   ar
    31    20    19   ar
