@<TRIPOS>MOLECULE
ZINC65149023_replica-1.pdb
 27 30 0 0 0
SMALL
GASTEIGER

@<TRIPOS>ATOM
      1  N1        -0.4550   27.7540   53.5870 N.ar    0  <0>0       -0.3263
      2  C4         0.2010   27.0480   54.5700 C.ar    0  <0>0        0.0716
      3  C5        -0.2340   27.4240   55.7640 C.ar    0  <0>0       -0.0021
      4  C6        -1.2230   28.4950   55.5390 C.ar    0  <0>0        0.0110
      5  C7        -1.3710   28.6110   54.1520 C.ar    0  <0>0        0.0593
      6  C8        -2.3520   29.4750   53.6780 C.ar    0  <0>0        0.0172
      7  C9        -3.0940   30.2190   54.5730 C.ar    0  <0>0        0.0012
      8  C10       -2.8690   30.1490   55.9450 C.ar    0  <0>0       -0.0025
      9  C11       -1.9090   29.3110   56.4260 C.ar    0  <0>0       -0.0011
     10  C12       -1.4870   29.3410   57.8790 C.3     0  <0>0        0.1217
     11  N2        -0.0160   29.3150   57.9280 N.am    0  <0>0       -0.2595
     12  C13        0.7500   28.0710   57.9380 C.3     0  <0>0        0.1000
     13  C14        0.0960   26.9410   57.1560 C.3     0  <0>0        0.0495
     14  C15        0.6500   30.4860   57.9660 C.2     0  <0>0        0.3079
     15  O1         1.8660   30.4920   58.0070 O.2     0  <0>0       -0.2522
     16  N3        -0.0310   31.6480   57.9570 N.am    0  <0>0       -0.2681
     17  H18       -0.9950   31.6460   57.8550 H       0  <0>0        0.1564
     18  C16        0.6560   32.8620   58.0950 C.ar    0  <0>0        0.0517
     19  C21        0.8830   33.3940   59.3570 C.ar    0  <0>0        0.0170
     20  C20        1.5650   34.5880   59.4910 C.ar    0  <0>0        0.0309
     21  C19        2.0110   35.2600   58.3660 C.ar    0  <0>0        0.1402
     22  C18        1.7810   34.7350   57.1060 C.ar    0  <0>0        0.0309
     23  F1         2.6720   36.4310   58.4980 F       0  <0>0       -0.2042
     24  C17        1.1050   33.5380   56.9690 C.ar    0  <0>0        0.0170
     25  C3        -0.2070   27.6190   52.1490 C.3     0  <0>0        0.1061
     26  C2        -1.2890   26.7360   51.5250 C.3     0  <0>0        0.0245
     27  C1        -0.8530   25.2720   51.5890 C.3     0  <0>0        0.0021
@<TRIPOS>BOND
     1    26    27    1
     2    26    25    1
     3    25     1    1
     4     1     5   ar
     5     1     2   ar
     6     6     5   ar
     7     6     7   ar
     8     5     4   ar
     9     2     3   ar
    10     7     8   ar
    11     4     3   ar
    12     4     9   ar
    13     3    13    1
    14     8     9   ar
    15     9    10    1
    16    24    22   ar
    17    24    18   ar
    18    22    21   ar
    19    13    12    1
    20    17    16    1
    21    10    11    1
    22    11    12    1
    23    11    14   am
    24    16    14   am
    25    16    18    1
    26    14    15    2
    27    18    19   ar
    28    21    23    1
    29    21    20   ar
    30    19    20   ar
