@<TRIPOS>MOLECULE
ZINC39971304_replica-1.pdb
 30 33 0 0 0
SMALL
GASTEIGER

@<TRIPOS>ATOM
      1  N1         1.8830   33.3680   57.6570 N.3     0  <0>0       -0.2664
      2  C8         0.6790   33.6560   56.8670 C.3     0  <0>0        0.0918
      3  C9         0.3230   32.4300   56.0180 C.3     0  <0>0        0.1131
      4  N2         0.2190   31.2620   56.9060 N.3     0  <0>0       -0.1527
      5  C10        1.3330   30.9880   57.8280 C.3     0  <0>0        0.1131
      6  C11        1.6490   32.2710   58.6050 C.3     0  <0>0        0.0918
      7  S1        -1.1140   30.2820   56.8680 S.O2    0  <0>0        0.0634
      8  O1        -1.1650   29.6160   58.1220 O.2     0  <0>0       -0.1528
      9  O2        -2.1880   31.0760   56.3820 O.2     0  <0>0       -0.1528
     10  C12       -0.8150   29.0420   55.6510 C.ar    0  <0>0        0.1219
     11  C17       -1.3740   29.1560   54.3960 C.ar    0  <0>0        0.0153
     12  C16       -1.1410   28.1860   53.4290 C.ar    0  <0>0       -0.0248
     13  C15       -0.3480   27.1010   53.7280 C.ar    0  <0>0       -0.0261
     14  C18       -1.7900   28.3690   52.0820 C.3     0  <0>0        0.0261
     15  C14        0.2080   26.9860   54.9960 C.ar    0  <0>0       -0.0032
     16  C21       -0.0480   26.0160   52.7280 C.3     0  <0>0        0.0260
     17  C13       -0.0230   27.9500   55.9540 C.ar    0  <0>0        0.0196
     18  C20       -1.0510   26.0530   51.5780 C.3     0  <0>0        0.0050
     19  C19       -1.1130   27.4850   51.0350 C.3     0  <0>0        0.0050
     20  C7         2.3570   34.5720   58.3530 C.3     0  <0>0        0.0992
     21  C6         3.5620   35.1240   57.6370 C.ar    0  <0>0       -0.0062
     22  C1         3.4010   35.8380   56.4640 C.ar    0  <0>0       -0.0030
     23  C2         4.5070   36.3460   55.8060 C.ar    0  <0>0        0.0036
     24  C3         5.7720   36.1400   56.3220 C.ar    0  <0>0        0.0714
     25  C4         5.9330   35.4260   57.4950 C.ar    0  <0>0        0.0036
     26  C5         4.8280   34.9190   58.1530 C.ar    0  <0>0       -0.0030
     27  C22        6.9780   36.6920   55.6050 C.3     0  <0>0        0.4186
     28  F1         6.8250   38.0720   55.4310 F       0  <0>0       -0.1659
     29  F2         8.1270   36.4430   56.3650 F       0  <0>0       -0.1659
     30  F3         7.1010   36.0740   54.3560 F       0  <0>0       -0.1659
@<TRIPOS>BOND
     1    19    18    1
     2    19    14    1
     3    18    16    1
     4    14    12    1
     5    16    13    1
     6    12    13   ar
     7    12    11   ar
     8    13    15   ar
     9    30    27    1
    10    11    10   ar
    11    15    17   ar
    12    28    27    1
    13    27    24    1
    14    27    29    1
    15    10    17   ar
    16    10     7    1
    17    23    24   ar
    18    23    22   ar
    19     3     2    1
    20     3     4    1
    21    24    25   ar
    22     9     7    2
    23    22    21   ar
    24     2     1    1
    25     7     4    1
    26     7     8    2
    27     4     5    1
    28    25    26   ar
    29    21    26   ar
    30    21    20    1
    31     1    20    1
    32     1     6    1
    33     5     6    1
