@<TRIPOS>MOLECULE
ZINC30809226_replica-1.pdb
 25 26 0 0 0
SMALL
GASTEIGER

@<TRIPOS>ATOM
      1  N2         6.9100   35.6160   59.1640 N.am    0  <0>0       -0.2289
      2  C12        6.2540   34.5770   58.6110 C.2     0  <0>0        0.2811
      3  O1         6.1810   34.4790   57.4040 O.2     0  <0>0       -0.2697
      4  H15        6.9750   35.7050   60.2590 H       0  <0>0        0.1707
      5  N1         7.5080   36.5830   58.3460 N.3     0  <0>0       -0.1265
      6  C11        8.6390   37.1180   58.6920 C.3     0  <0>0        0.1378
      7  C8         9.5240   36.4190   59.6430 C.ar    0  <0>0       -0.0030
      8  C7         9.8510   37.0130   60.8640 C.ar    0  <0>0       -0.0031
      9  C6        10.6790   36.3540   61.7480 C.ar    0  <0>0       -0.0046
     10  C5        11.1850   35.1060   61.4290 C.ar    0  <0>0       -0.0228
     11  C10       10.8660   34.5120   60.2210 C.ar    0  <0>0       -0.0046
     12  C9        10.0340   35.1570   59.3290 C.ar    0  <0>0       -0.0031
     13  C2        12.0890   34.3920   62.4010 C.3     0  <0>0        0.0189
     14  C1        12.1890   35.2040   63.6940 C.3     0  <0>0        0.0044
     15  C3        11.5130   33.0080   62.7100 C.3     0  <0>0        0.0044
     16  C4        13.4810   34.2390   61.7850 C.3     0  <0>0        0.0044
     17  C13        5.6100   33.5380   59.4920 C.3     0  <0>0        0.2907
     18  O2         4.4020   33.0780   58.8820 O.3     0  <0>0       -0.4656
     19  C14        3.2410   33.3350   59.5410 C.ar    0  <0>0        0.1393
     20  C19        2.9490   32.6630   60.7190 C.ar    0  <0>0        0.0378
     21  C18        1.7680   32.9250   61.3870 C.ar    0  <0>0        0.0145
     22  C17        0.8790   33.8580   60.8830 C.ar    0  <0>0        0.0579
     23  C16        1.1700   34.5300   59.7100 C.ar    0  <0>0        0.0145
     24 Cl         -0.6030   34.1870   61.7250 Cl      0  <0>0       -0.0822
     25  C15        2.3490   34.2710   59.0380 C.ar    0  <0>0        0.0378
@<TRIPOS>BOND
     1     3     2    2
     2     5     6    1
     3     5     1    1
     4     2     1   am
     5     2    17    1
     6     6     7    1
     7    18    17    1
     8    18    19    1
     9    25    19   ar
    10    25    23   ar
    11     1     4    1
    12    12     7   ar
    13    12    11   ar
    14    19    20   ar
    15     7     8   ar
    16    23    22   ar
    17    11    10   ar
    18    20    21   ar
    19     8     9   ar
    20    22    21   ar
    21    22    24    1
    22    10     9   ar
    23    10    13    1
    24    16    13    1
    25    13    15    1
    26    13    14    1
