@<TRIPOS>MOLECULE
ZINC57670957_replica-1.pdb
 23 24 0 0 0
SMALL
GASTEIGER

@<TRIPOS>ATOM
      1  C5        12.2760   33.5930   62.7450 C.ar    0  <0>0        0.0315
      2  C6        12.4590   34.9620   62.8310 C.ar    0  <0>0        0.0143
      3  C7        11.6330   35.8160   62.1290 C.ar    0  <0>0        0.0155
      4  C8        10.6150   35.3000   61.3360 C.ar    0  <0>0        0.0449
      5  C9        10.4340   33.9250   61.2520 C.ar    0  <0>0        0.0155
      6  C10       11.2680   33.0760   61.9530 C.ar    0  <0>0        0.0143
      7  N2         9.7770   36.1610   60.6240 N.pl3   0  <0>0       -0.3306
      8  H16       10.0870   37.0460   60.3780 H       0  <0>0        0.1471
      9  C11        8.4280   35.7280   60.2520 C.3     0  <0>0        0.0921
     10  C12        7.3960   36.5620   61.0130 C.3     0  <0>0        0.0261
     11  C13        8.2310   35.9160   58.7690 C.ar    0  <0>0       -0.0024
     12  C16        8.3180   34.8600   57.9250 C.ar    0  <0>0        0.0049
     13  S1         8.0080   35.6270   56.3420 S.2     0  <0>0       -0.0959
     14  C17        8.5990   33.4140   58.2390 C.3     0  <0>0        0.0379
     15  C15        7.7950   37.3050   56.9130 C.ar    0  <0>0        0.0070
     16  C14        7.9660   37.1700   58.2510 C.ar    0  <0>0       -0.0003
     17  C18        7.5000   38.5490   56.1150 C.3     0  <0>0        0.0381
     18  N1        13.1160   32.7320   63.4580 N.pl3   0  <0>0       -0.3758
     19  H27       12.9300   32.8240   64.4460 H       0  <0>0        0.1277
     20  C2        12.8650   31.3470   63.0400 C.3     0  <0>0        0.0726
     21  C1        12.7260   30.4570   64.2760 C.3     0  <0>0        0.0215
     22  C3        14.5170   33.0810   63.1880 C.3     0  <0>0        0.0726
     23  C4        15.2210   33.4220   64.5040 C.3     0  <0>0        0.0215
@<TRIPOS>BOND
     1    17    15    1
     2    13    15   ar
     3    13    12   ar
     4    15    16   ar
     5    12    14    1
     6    12    11   ar
     7    16    11   ar
     8    11     9    1
     9     9     7    1
    10     9    10    1
    11     8     7    1
    12     7     4    1
    13     5     4   ar
    14     5     6   ar
    15     4     3   ar
    16     6     1   ar
    17     3     2   ar
    18     1     2   ar
    19     1    18    1
    20    20    18    1
    21    20    21    1
    22    22    18    1
    23    22    23    1
    24    18    19    1
