@<TRIPOS>MOLECULE
ZINC13183942_replica-1.pdb
 24 25 0 0 0
SMALL
GASTEIGER

@<TRIPOS>ATOM
      1  N1         0.4100   33.3060   56.1150 N.3     0  <0>0       -0.1785
      2  H12       -0.4660   33.4830   55.7360 H       0  <0>0        0.1488
      3  C9         0.9900   31.9640   56.0240 C.3     0  <0>0        0.1034
      4  C8        -0.1100   30.9190   56.2260 C.3     0  <0>0        0.0810
      5  S1        -1.2530   30.9650   54.8190 S.3     0  <0>0       -0.1122
      6  C5        -1.0070   29.4160   54.0180 C.ar    0  <0>0        0.0252
      7  C4        -1.6370   29.1490   52.8080 C.ar    0  <0>0        0.0058
      8  C3        -1.4410   27.9330   52.1830 C.ar    0  <0>0       -0.0038
      9  C2        -0.6210   26.9810   52.7610 C.ar    0  <0>0       -0.0218
     10  C1        -0.4100   25.6550   52.0760 C.3     0  <0>0        0.0310
     11  C7         0.0070   27.2430   53.9650 C.ar    0  <0>0       -0.0038
     12  C6        -0.1840   28.4570   54.5960 C.ar    0  <0>0        0.0058
     13  S2         1.2480   34.5230   56.8630 S.O2    0  <0>0        0.0602
     14  O1         2.4890   34.6400   56.1820 O.2     0  <0>0       -0.1530
     15  O2         0.3460   35.6130   56.9980 O.2     0  <0>0       -0.1530
     16  C10        1.6180   33.9720   58.4960 C.ar    0  <0>0        0.1221
     17  C15        0.6410   33.9950   59.4680 C.ar    0  <0>0        0.0265
     18  C14        0.9350   33.5580   60.7610 C.ar    0  <0>0        0.0811
     19  C13        2.2190   33.1000   61.0610 C.ar    0  <0>0        0.0067
     20  C12        3.1880   33.0810   60.0780 C.ar    0  <0>0        0.0016
     21  C11        2.8870   33.5110   58.7970 C.ar    0  <0>0        0.0199
     22  C16       -0.1070   33.5810   61.8080 C.2     0  <0>0        0.3878
     23  O3        -0.6400   34.6300   62.1120 O.co2   0  <0>0       -0.2406
     24  O4        -0.4680   32.4390   62.4240 O.co2   0  <0>0       -0.2406
@<TRIPOS>BOND
     1    10     9    1
     2     8     9   ar
     3     8     7   ar
     4     9    11   ar
     5     7     6   ar
     6    11    12   ar
     7     6    12   ar
     8     6     5    1
     9     5     4    1
    10     2     1    1
    11     3     1    1
    12     3     4    1
    13     1    13    1
    14    14    13    2
    15    13    15    2
    16    13    16    1
    17    16    21   ar
    18    16    17   ar
    19    21    20   ar
    20    17    18   ar
    21    20    19   ar
    22    18    19   ar
    23    18    22    1
    24    22    23   ar
    25    22    24   ar
