@<TRIPOS>MOLECULE
ZINC66588452_replica-1.pdb
 27 28 0 0 0
SMALL
GASTEIGER

@<TRIPOS>ATOM
      1  S1         7.9200   35.8620   57.3720 S.O2    0  <0>0        0.0928
      2  O2         8.6020   36.6690   56.4220 O.2     0  <0>0       -0.1483
      3  O3         7.6920   34.4750   57.1680 O.2     0  <0>0       -0.1483
      4  C9         8.8080   36.0090   58.8870 C.ar    0  <0>0        0.1272
      5  C8         9.0120   37.2570   59.4490 C.ar    0  <0>0        0.0203
      6  C7         9.7070   37.3800   60.6390 C.ar    0  <0>0        0.0015
      7  C6        10.2020   36.2600   61.2730 C.ar    0  <0>0        0.0046
      8  C5         9.9990   34.9980   60.7120 C.ar    0  <0>0        0.0547
      9  C10        9.3010   34.8800   59.5090 C.ar    0  <0>0        0.0248
     10  C4        10.5250   33.7920   61.3850 C.2     0  <0>0        0.2461
     11  N1        11.5990   33.8870   62.1940 N.am    0  <0>0       -0.2969
     12  H6        12.0250   34.7460   62.3350 H       0  <0>0        0.1501
     13  O1         9.9900   32.7140   61.2090 O.2     0  <0>0       -0.2701
     14  C3        12.1210   32.6920   62.8620 C.3     0  <0>0        0.1163
     15  C2        13.6170   32.8100   63.0060 C.2     0  <0>0       -0.0049
     16  C1        14.2550   33.7980   62.4280 C.2     0  <0>0       -0.0032
     17  N2         6.4360   36.5570   57.6050 N.pl3   0  <0>0       -0.0965
     18  C11        5.2950   35.9700   57.0520 C.ar    0  <0>0        0.0915
     19  C16        4.4590   35.1950   57.8440 C.ar    0  <0>0        0.0244
     20  C15        3.3230   34.6180   57.2920 C.ar    0  <0>0        0.0316
     21  C14        3.0320   34.8100   55.9460 C.ar    0  <0>0        0.0064
     22  C13        3.8700   35.5780   55.1590 C.ar    0  <0>0        0.0019
     23  C12        4.9980   36.1570   55.7080 C.ar    0  <0>0        0.0181
     24  S2         2.2550   33.6380   58.2930 S.3     0  <0>0       -0.0441
     25  C17        1.0430   34.8240   58.9340 C.3     0  <0>0        0.3707
     26  F1         1.0140   34.7540   60.3320 F       0  <0>0       -0.1852
     27  F2         1.4030   36.1180   58.5410 F       0  <0>0       -0.1852
@<TRIPOS>BOND
     1    22    23   ar
     2    22    21   ar
     3    23    18   ar
     4    21    20   ar
     5     2     1    2
     6    18    17    1
     7    18    19   ar
     8     3     1    2
     9    20    19   ar
    10    20    24    1
    11     1    17    1
    12     1     4    1
    13    24    25    1
    14    27    25    1
    15     4     5   ar
    16     4     9   ar
    17    25    26    1
    18     5     6   ar
    19     9     8   ar
    20     6     7   ar
    21     8     7   ar
    22     8    10    1
    23    13    10    2
    24    10    11   am
    25    11    12    1
    26    11    14    1
    27    16    15    2
    28    14    15    1
