@<TRIPOS>MOLECULE
ZINC19984899_replica-1.pdb
 20 20 0 0 0
SMALL
GASTEIGER

@<TRIPOS>ATOM
      1  C9         9.3980   36.0290   59.9890 C.ar    0  <0>0        0.0446
      2  C10        9.8260   34.7180   59.8180 C.ar    0  <0>0        0.0140
      3  C11       10.7900   34.1940   60.6560 C.ar    0  <0>0       -0.0030
      4  C12       11.3220   34.9680   61.6700 C.ar    0  <0>0       -0.0227
      5  C13       10.8950   36.2720   61.8460 C.ar    0  <0>0       -0.0030
      6  C14        9.9350   36.8050   61.0090 C.ar    0  <0>0        0.0140
      7  N1         8.4260   36.5630   59.1400 N.pl3   0  <0>0       -0.3340
      8  H18        7.5880   35.9360   58.7990 H       0  <0>0        0.1468
      9  C6         8.5230   37.9570   58.7020 C.3     0  <0>0        0.0690
     10  C5         8.5450   38.0110   57.1730 C.3     0  <0>0        0.0195
     11  C3         7.7220   36.8510   56.6090 C.3     0  <0>0        0.0016
     12  C4         8.5930   36.0220   55.6620 C.3     0  <0>0        0.0001
     13  C2         6.5190   37.4040   55.8430 C.3     0  <0>0        0.0001
     14  C1         5.3430   36.4320   55.9720 C.3     0  <0>0        0.0000
     15  C7         7.3150   38.7400   59.2210 C.3     0  <0>0        0.0195
     16  C8         6.3420   37.7780   59.9070 C.3     0  <0>0        0.0017
     17  C15       12.3710   34.3920   62.5860 C.3     0  <0>0        0.0189
     18  C16       13.7070   34.3110   61.8430 C.3     0  <0>0        0.0044
     19  C17       12.5240   35.2900   63.8150 C.3     0  <0>0        0.0044
     20  C18       11.9480   32.9900   63.0270 C.3     0  <0>0        0.0044
@<TRIPOS>BOND
     1    12    11    1
     2    13    14    1
     3    13    11    1
     4    11    10    1
     5    10     9    1
     6     9     7    1
     7     9    15    1
     8     8     7    1
     9     7     1    1
    10    15    16    1
    11     2     1   ar
    12     2     3   ar
    13     1     6   ar
    14     3     4   ar
    15     6     5   ar
    16     4     5   ar
    17     4    17    1
    18    18    17    1
    19    17    20    1
    20    17    19    1
