@<TRIPOS>MOLECULE
ZINC13691027_replica-1.pdb
 27 30 0 0 0
SMALL
GASTEIGER

@<TRIPOS>ATOM
      1  C11       -0.2780   28.8380   58.0880 C.2     0  <0>0        0.0103
      2  C12        0.4070   29.9500   58.4880 C.2     0  <0>0        0.0851
      3  C13        0.7600   31.1600   57.7270 C.2     0  <0>0        0.2633
      4  O2         0.4430   31.2950   56.5590 O.2     0  <0>0       -0.2687
      5  N1         1.4320   32.0960   58.3760 N.am    0  <0>0       -0.2223
      6  C14        1.7860   31.9400   59.6680 C.2     0  <0>0        0.1250
      7  S1         2.6550   33.0220   60.6700 S.2     0  <0>0       -0.0269
      8  S2         1.1220   30.3350   60.0810 S.3     0  <0>0       -0.0601
      9  C3        -0.6500   28.6900   56.7390 C.2     0  <0>0        0.0179
     10  C2        -1.8210   29.4620   56.1880 C.3     0  <0>0        0.1883
     11  C1        -3.0940   28.6280   56.3400 C.3     0  <0>0        0.0523
     12  O1        -1.6090   29.7640   54.8050 O.3     0  <0>0       -0.4748
     13  C10       -1.2210   28.7440   54.0000 C.ar    0  <0>0        0.1388
     14  C5        -0.3820   27.7430   54.5220 C.ar    0  <0>0        0.0338
     15  C9        -1.6330   28.6720   52.6820 C.ar    0  <0>0        0.0369
     16  C4         0.0400   27.8430   55.9270 C.2     0  <0>0        0.0022
     17  C6         0.0310   26.6860   53.7110 C.ar    0  <0>0        0.0030
     18  C7        -0.3900   26.6310   52.3990 C.ar    0  <0>0        0.0002
     19  C8        -1.2180   27.6180   51.8880 C.ar    0  <0>0        0.0031
     20  C15        1.7890   33.2720   57.7050 C.ar    0  <0>0        0.0623
     21  C20        0.8650   34.2970   57.5580 C.ar    0  <0>0        0.0519
     22  C19        1.2240   35.4590   56.8920 C.ar    0  <0>0        0.1349
     23  C18        2.5040   35.5960   56.3750 C.ar    0  <0>0        0.0367
     24  C17        3.4230   34.5740   56.5220 C.ar    0  <0>0        0.0044
     25  C16        3.0720   33.4170   57.1900 C.ar    0  <0>0        0.0155
     26  O3         0.3210   36.4650   56.7480 O.3     0  <0>0       -0.5055
     27  H15       -0.6010   36.1720   56.7700 H       0  <0>0        0.2922
@<TRIPOS>BOND
     1    19    18   ar
     2    19    15   ar
     3    18    17   ar
     4    15    13   ar
     5    17    14   ar
     6    13    14   ar
     7    13    12    1
     8    14    16    1
     9    12    10    1
    10    16     9    2
    11    10    11    1
    12    10     9    1
    13    23    24   ar
    14    23    22   ar
    15    24    25   ar
    16     4     3    2
    17     9     1    1
    18    26    27    1
    19    26    22    1
    20    22    21   ar
    21    25    20   ar
    22    21    20   ar
    23    20     5    1
    24     3     5   am
    25     3     2    1
    26     1     2    2
    27     5     6    1
    28     2     8    1
    29     6     8    1
    30     6     7    2
