@<TRIPOS>MOLECULE
ZINC15317255_replica-1.pdb
 29 30 0 0 0
SMALL
GASTEIGER

@<TRIPOS>ATOM
      1  C3        -0.5840   28.9310   56.7860 C.2     0  <0>0        0.2464
      2  O1        -1.6150   28.2900   56.7720 O.2     0  <0>0       -0.2729
      3  N2         0.3040   28.7980   55.7810 N.am    0  <0>0       -0.2825
      4  H6         1.0830   29.3750   55.7440 H       0  <0>0        0.1549
      5  C2        -0.2980   29.8720   57.9260 C.3     0  <0>0        0.1797
      6  N1         0.2070   31.1420   57.3960 N.am    0  <0>0       -0.2660
      7  C1        -0.6300   31.9460   56.5030 C.3     0  <0>0        0.1157
      8  C11        1.4400   31.5690   57.7310 C.2     0  <0>0        0.2503
      9  O2         2.1940   30.8340   58.3370 O.2     0  <0>0       -0.2699
     10  C12        1.8760   32.9310   57.3620 C.ar    0  <0>0        0.0665
     11  C17        1.5530   34.0170   58.1790 C.ar    0  <0>0        0.0644
     12  C16        1.9670   35.2870   57.8310 C.ar    0  <0>0        0.0435
     13 Cl          0.6360   33.7680   59.6320 Cl      0  <0>0       -0.0820
     14  C15        2.6920   35.4880   56.6690 C.ar    0  <0>0        0.1682
     15  C14        3.0120   34.4130   55.8490 C.ar    0  <0>0        0.1676
     16  F4         3.0890   36.7340   56.3300 F       0  <0>0       -0.2018
     17  C13        2.6080   33.1380   56.1900 C.ar    0  <0>0        0.0373
     18  F5         3.7200   34.6160   54.7160 F       0  <0>0       -0.2018
     19  C4         0.1030   27.8300   54.7910 C.ar    0  <0>0        0.0503
     20  C9        -0.5770   28.1570   53.6250 C.ar    0  <0>0        0.0194
     21  C8        -0.7740   27.1990   52.6500 C.ar    0  <0>0        0.0832
     22  C7        -0.2960   25.9140   52.8340 C.ar    0  <0>0        0.0616
     23  C6         0.3820   25.5840   53.9950 C.ar    0  <0>0        0.0126
     24 Cl         -0.5450   24.7120   51.6060 Cl      0  <0>0       -0.0823
     25  C5         0.5870   26.5400   54.9710 C.ar    0  <0>0        0.0155
     26  C10       -1.5120   27.5530   51.3840 C.3     0  <0>0        0.4194
     27  F1        -0.5920   27.7670   50.3520 F       0  <0>0       -0.1658
     28  F2        -2.3680   26.5040   51.0350 F       0  <0>0       -0.1658
     29  F3        -2.2600   28.7170   51.5900 F       0  <0>0       -0.1658
@<TRIPOS>BOND
     1    27    26    1
     2    28    26    1
     3    26    29    1
     4    26    21    1
     5    24    22    1
     6    21    22   ar
     7    21    20   ar
     8    22    23   ar
     9    20    19   ar
    10    23    25   ar
    11    18    15    1
    12    19    25   ar
    13    19     3    1
    14     4     3    1
    15     3     1   am
    16    15    17   ar
    17    15    14   ar
    18    17    10   ar
    19    16    14    1
    20     7     6    1
    21    14    12   ar
    22     2     1    2
    23     1     5    1
    24    10     8    1
    25    10    11   ar
    26     6     8   am
    27     6     5    1
    28     8     9    2
    29    12    11   ar
    30    11    13    1
