@<TRIPOS>MOLECULE
ZINC05978806_replica-1.pdb
 26 27 0 0 0
SMALL
GASTEIGER

@<TRIPOS>ATOM
      1  N2         8.5380   34.0390   60.3640 N.am    0  <0>0       -0.2023
      2  C11        7.7940   35.1620   60.3720 C.2     0  <0>0        0.2645
      3  O2         8.2420   36.1840   60.8560 O.2     0  <0>0       -0.2684
      4  H13        8.1820   33.2230   59.9770 H       0  <0>0        0.1776
      5  N1         9.8270   34.0470   60.9140 N.2     0  <0>0       -0.1773
      6  C10       10.2400   33.0380   61.6180 C.2     0  <0>0        0.1176
      7  C7        11.5960   33.0490   62.1960 C.ar    0  <0>0        0.0209
      8  C6        12.4230   34.1620   62.0210 C.ar    0  <0>0        0.0047
      9  C5        13.6890   34.1690   62.5640 C.ar    0  <0>0        0.0369
     10  C4        14.1450   33.0700   63.2830 C.ar    0  <0>0        0.1386
     11  C9        13.3260   31.9630   63.4580 C.ar    0  <0>0        0.0369
     12  C8        12.0570   31.9490   62.9240 C.ar    0  <0>0        0.0047
     13  O1        15.3940   33.0820   63.8160 O.3     0  <0>0       -0.4755
     14  C3        15.7000   34.1380   64.7290 C.3     0  <0>0        0.2054
     15  C2        17.2070   34.1670   64.9890 C.3     0  <0>0        0.0473
     16  C1        17.8780   35.1180   63.9950 C.3     0  <0>0        0.0040
     17  C12        6.4350   35.1520   59.7910 C.ar    0  <0>0        0.0550
     18  C17        6.1410   35.9490   58.6830 C.ar    0  <0>0        0.0042
     19  C16        4.8700   35.9360   58.1470 C.ar    0  <0>0       -0.0041
     20  C15        3.8890   35.1350   58.7040 C.ar    0  <0>0       -0.0228
     21  C14        4.1740   34.3430   59.8030 C.ar    0  <0>0       -0.0041
     22  C13        5.4400   34.3470   60.3490 C.ar    0  <0>0        0.0042
     23  C18        2.5020   35.1260   58.1120 C.3     0  <0>0        0.0189
     24  C19        1.4850   35.5080   59.1890 C.3     0  <0>0        0.0044
     25  C20        2.4320   36.1330   56.9630 C.3     0  <0>0        0.0044
     26  C21        2.1830   33.7260   57.5830 C.3     0  <0>0        0.0044
@<TRIPOS>BOND
     1    25    23    1
     2    26    23    1
     3    23    20    1
     4    23    24    1
     5    19    18   ar
     6    19    20   ar
     7    18    17   ar
     8    20    21   ar
     9    17    22   ar
    10    17     2    1
    11    21    22   ar
    12     4     1    1
    13     1     2   am
    14     1     5    1
    15     2     3    2
    16     5     6    2
    17     6     7    1
    18     8     7   ar
    19     8     9   ar
    20     7    12   ar
    21     9    10   ar
    22    12    11   ar
    23    10    11   ar
    24    10    13    1
    25    13    14    1
    26    16    15    1
    27    14    15    1
