@<TRIPOS>MOLECULE
ZINC04124777_replica-1.pdb
 22 23 0 0 0
SMALL
GASTEIGER

@<TRIPOS>ATOM
      1  C8         8.4440   36.0060   58.1590 C.2     0  <0>0        0.0619
      2  C9         9.1000   36.5450   59.2120 C.2     0  <0>0        0.0159
      3  C10       10.0810   35.7950   59.8890 C.2     0  <0>0        0.0029
      4  C11       10.3640   36.0660   61.1930 C.2     0  <0>0        0.0207
      5  C12       11.3440   35.3180   61.8680 C.2     0  <0>0        0.0988
      6  N2        11.2980   34.0060   61.8460 N.2     0  <0>0       -0.2438
      7  C13       12.2490   33.2790   62.5020 C.ar    0  <0>0        0.0810
      8  C18       11.9290   32.0320   63.0470 C.ar    0  <0>0        0.0148
      9  C17       12.8970   31.3000   63.7020 C.ar    0  <0>0       -0.0204
     10  C16       14.1790   31.8040   63.8340 C.ar    0  <0>0       -0.0042
     11  C19       12.5550   29.9520   64.2830 C.3     0  <0>0        0.0311
     12  C15       14.5020   33.0400   63.3040 C.ar    0  <0>0        0.0012
     13  C14       13.5480   33.7810   62.6400 C.ar    0  <0>0        0.0191
     14  N1         7.4880   36.7350   57.5000 N.pl3   0  <0>0       -0.3116
     15  H8         7.7480   37.4900   56.9490 H       0  <0>0        0.1523
     16  C6         6.1400   36.3910   57.6220 C.ar    0  <0>0        0.0480
     17  C5         5.5260   36.4050   58.8680 C.ar    0  <0>0        0.0146
     18  C4         4.1940   36.0640   58.9840 C.ar    0  <0>0        0.0009
     19  C3         3.4690   35.7090   57.8610 C.ar    0  <0>0       -0.0042
     20  C2         4.0760   35.6930   56.6190 C.ar    0  <0>0       -0.0206
     21  C1         3.2820   35.3040   55.3980 C.3     0  <0>0        0.0311
     22  C7         5.4100   36.0270   56.4960 C.ar    0  <0>0        0.0104
@<TRIPOS>BOND
     1    21    20    1
     2    22    20   ar
     3    22    16   ar
     4    20    19   ar
     5    15    14    1
     6    14    16    1
     7    14     1    1
     8    16    17   ar
     9    19    18   ar
    10     1     2    2
    11    17    18   ar
    12     2     3    1
    13     3     4    2
    14     4     5    1
    15     6     5    2
    16     6     7    1
    17     7    13   ar
    18     7     8   ar
    19    13    12   ar
    20     8     9   ar
    21    12    10   ar
    22     9    10   ar
    23     9    11    1
