@<TRIPOS>MOLECULE
ZINC04591614_replica-1.pdb
 27 29 0 0 0
SMALL
GASTEIGER

@<TRIPOS>ATOM
      1  C11       10.2000   35.2280   59.9640 C.ar    0  <0>0        0.0814
      2  C12        9.5720   34.5990   58.8830 C.ar    0  <0>0        0.0205
      3  C13        8.6050   35.2570   58.1780 C.ar    0  <0>0        0.0196
      4  C14        8.2420   36.5610   58.5370 C.ar    0  <0>0        0.0892
      5  C15        8.8710   37.1890   59.6180 C.ar    0  <0>0        0.0196
      6  C16        9.8330   36.5290   60.3260 C.ar    0  <0>0        0.0205
      7  N1        11.1670   34.5700   60.6690 N.2     0  <0>0       -0.2437
      8  C10       10.8320   33.7640   61.6390 C.2     0  <0>0        0.1018
      9  C8        11.8730   33.0560   62.3980 C.ar    0  <0>0        0.0525
     10  C7        11.5810   31.8430   63.0310 C.ar    0  <0>0        0.0045
     11  C6        12.5620   31.1840   63.7400 C.ar    0  <0>0       -0.0001
     12  C5        13.8380   31.7180   63.8290 C.ar    0  <0>0       -0.0009
     13  C4        14.1400   32.9150   63.2100 C.ar    0  <0>0        0.0159
     14  C9        13.1650   33.5940   62.4960 C.ar    0  <0>0        0.1314
     15  C3        15.5310   33.4850   63.3140 C.3     0  <0>0        0.0554
     16  C2        15.8090   33.8720   64.7440 C.2     0  <0>0       -0.0213
     17  C1        16.9690   34.3870   65.0700 C.2     0  <0>0       -0.0046
     18  O1        13.4600   34.7730   61.8910 O.3     0  <0>0       -0.5058
     19  H9        12.7000   35.3620   61.7870 H       0  <0>0        0.2922
     20  N2         7.2770   37.2170   57.8330 N.pl3   0  <0>0       -0.1281
     21  N3         6.5870   36.5870   56.9440 N.pl3   0  <0>0       -0.1281
     22  C17        5.2720   36.2980   57.1790 C.ar    0  <0>0        0.0891
     23  C22        4.8250   36.0720   58.4840 C.ar    0  <0>0        0.0181
     24  C21        3.4950   35.7860   58.7140 C.ar    0  <0>0        0.0014
     25  C20        2.6070   35.7110   57.6550 C.ar    0  <0>0        0.0001
     26  C19        3.0430   35.9280   56.3600 C.ar    0  <0>0        0.0014
     27  C18        4.3680   36.2200   56.1150 C.ar    0  <0>0        0.0181
@<TRIPOS>BOND
     1    27    26   ar
     2    27    22   ar
     3    26    25   ar
     4    21    22    1
     5    21    20    1
     6    22    23   ar
     7    25    24   ar
     8    20     4    1
     9     3     4   ar
    10     3     2   ar
    11    23    24   ar
    12     4     5   ar
    13     2     1   ar
    14     5     6   ar
    15     1     6   ar
    16     1     7    1
    17     7     8    2
    18     8     9    1
    19    19    18    1
    20    18    14    1
    21     9    14   ar
    22     9    10   ar
    23    14    13   ar
    24    10    11   ar
    25    13    15    1
    26    13    12   ar
    27    15    16    1
    28    11    12   ar
    29    16    17    2
