@<TRIPOS>MOLECULE
ZINC02182973_replica-1.pdb
 26 29 0 0 0
SMALL
GASTEIGER

@<TRIPOS>ATOM
      1  C8         7.0110   35.1220   56.3210 C.ar    0  <0>0        0.1155
      2  N1         7.8030   35.2680   57.3420 N.ar    0  <0>0       -0.1593
      3  N2         8.0430   36.5170   57.8990 N.ar    0  <0>0       -0.1857
      4  C9         8.7710   37.0970   58.9280 C.ar    0  <0>0        0.1870
      5  N3         8.5390   38.3890   58.9040 N.ar    0  <0>0       -0.1264
      6  N4         7.7260   38.6710   57.9460 N.ar    0  <0>0       -0.1199
      7  C10        7.4010   37.5810   57.3150 C.ar    0  <0>0        0.2183
      8  S1         6.4860   36.8010   56.0090 S.2     0  <0>0       -0.0302
      9  C11        9.6490   36.3870   59.8820 C.ar    0  <0>0        0.0376
     10  C16       10.1260   35.1110   59.5790 C.ar    0  <0>0        0.0030
     11  C15       10.9460   34.4540   60.4740 C.ar    0  <0>0        0.0040
     12  C14       11.2960   35.0590   61.6680 C.ar    0  <0>0        0.0714
     13  C13       10.8270   36.3230   61.9730 C.ar    0  <0>0        0.0040
     14  C12       10.0100   36.9940   61.0860 C.ar    0  <0>0        0.0030
     15  C17       12.1920   34.3360   62.6400 C.3     0  <0>0        0.4186
     16  F1        11.5700   33.1520   63.0550 F       0  <0>0       -0.1659
     17  F2        13.4060   34.0300   62.0170 F       0  <0>0       -0.1659
     18  F3        12.4290   35.1520   63.7510 F       0  <0>0       -0.1659
     19  C7         6.6330   33.8600   55.5890 C.3     0  <0>0        0.0816
     20  C5         5.3060   33.3610   56.1000 C.ar    0  <0>0       -0.0050
     21  C4         4.1340   33.7500   55.4760 C.ar    0  <0>0        0.0541
     22  C3         2.9160   33.2880   55.9430 C.ar    0  <0>0        0.0111
     23 Cl          4.1930   34.8110   54.1030 Cl      0  <0>0       -0.0826
     24  C2         2.8700   32.4470   57.0390 C.ar    0  <0>0        0.0008
     25  C1         4.0410   32.0640   57.6660 C.ar    0  <0>0       -0.0003
     26  C6         5.2580   32.5210   57.1970 C.ar    0  <0>0       -0.0030
@<TRIPOS>BOND
     1    23    21    1
     2    21    22   ar
     3    21    20   ar
     4    19    20    1
     5    19     1    1
     6    22    24   ar
     7     8     1   ar
     8     8     7   ar
     9    20    26   ar
    10     1     2   ar
    11    24    25   ar
    12    26    25   ar
    13     7     3   ar
    14     7     6   ar
    15     2     3   ar
    16     3     4   ar
    17     6     5   ar
    18     5     4   ar
    19     4     9    1
    20    10     9   ar
    21    10    11   ar
    22     9    14   ar
    23    11    12   ar
    24    14    13   ar
    25    12    13   ar
    26    12    15    1
    27    17    15    1
    28    15    16    1
    29    15    18    1
