@<TRIPOS>MOLECULE
ZINC22451363_replica-1.pdb
 25 27 0 0 0
SMALL
GASTEIGER

@<TRIPOS>ATOM
      1  C9        -1.2470   29.8370   56.9760 C.2     0  <0>0        0.1100
      2  C10       -1.0600   28.7210   57.7390 C.3     0  <0>0        0.1406
      3  C11       -0.2010   28.7930   58.8500 C.2     0  <0>0        0.2357
      4  O1        -0.0110   27.8150   59.5540 O.2     0  <0>0       -0.2742
      5  N1         0.4100   29.9660   59.1230 N.am    0  <0>0       -0.2469
      6  H1         1.0860   30.0450   59.9860 H       0  <0>0        0.1585
      7  C12        0.1860   31.0450   58.3260 C.2     0  <0>0        0.2432
      8  N2        -0.6260   30.9710   57.2900 N.2     0  <0>0       -0.3803
      9  N3         0.8080   32.2310   58.6100 N.pl3   0  <0>0       -0.2715
     10  C13        0.6160   32.6040   60.0170 C.3     0  <0>0        0.0943
     11  C14        1.4420   33.8520   60.3330 C.3     0  <0>0        0.0199
     12  C15        1.0000   34.9970   59.4170 C.3     0  <0>0        0.0034
     13  C16        1.1650   34.5650   57.9580 C.3     0  <0>0        0.0199
     14  C17        0.3470   33.2970   57.7110 C.3     0  <0>0        0.0943
     15  C18        0.6690   35.6810   57.0360 C.3     0  <0>0        0.0018
     16  C19        2.9250   33.5550   60.1010 C.3     0  <0>0        0.0018
     17  C8        -2.1630   29.7860   55.7800 C.3     0  <0>0        0.1169
     18  S1        -1.2280   30.2090   54.2840 S.3     0  <0>0       -0.1064
     19  C5        -1.0150   28.6650   53.4640 C.ar    0  <0>0        0.0256
     20  C4        -0.2890   27.6470   54.0710 C.ar    0  <0>0        0.0058
     21  C3        -0.1230   26.4380   53.4240 C.ar    0  <0>0       -0.0038
     22  C2        -0.6810   26.2400   52.1740 C.ar    0  <0>0       -0.0218
     23  C1        -0.4980   24.9180   51.4730 C.3     0  <0>0        0.0310
     24  C7        -1.4040   27.2490   51.5670 C.ar    0  <0>0       -0.0038
     25  C6        -1.5770   28.4590   52.2090 C.ar    0  <0>0        0.0058
@<TRIPOS>BOND
     1    23    22    1
     2    24    22   ar
     3    24    25   ar
     4    22    21   ar
     5    25    19   ar
     6    21    20   ar
     7    19    20   ar
     8    19    18    1
     9    18    17    1
    10    17     1    1
    11     1     8    2
    12     1     2    1
    13    15    13    1
    14     8     7    2
    15    14    13    1
    16    14     9    1
    17     2     3    1
    18    13    12    1
    19     7     9    1
    20     7     5    1
    21     9    10    1
    22     3     5   am
    23     3     4    2
    24     5     6    1
    25    12    11    1
    26    10    11    1
    27    16    11    1
