@<TRIPOS>MOLECULE
ZINC34724370_replica-1.pdb
 33 37 0 0 0
SMALL
GASTEIGER

@<TRIPOS>ATOM
      1  N1        -1.6130   29.9310   56.1960 N.ar    0  <0>0       -0.2715
      2  C9        -0.6010   30.6730   56.7400 C.ar    0  <0>0        0.0984
      3  C10       -0.1370   30.4350   58.0310 C.ar    0  <0>0        0.0752
      4  C11        0.9600   31.3080   58.4990 C.ar    0  <0>0       -0.0062
      5  C12        1.3970   32.2480   57.6190 C.ar    0  <0>0        0.0267
      6  S1         0.3990   32.0210   56.1710 S.2     0  <0>0       -0.0698
      7  C13        2.5010   33.0310   58.2620 C.2     0  <0>0       -0.0020
      8  C14        2.6550   32.4240   59.6380 C.2     0  <0>0       -0.0396
      9  C15        1.7690   31.4520   59.7430 C.3     0  <0>0        0.0413
     10  C16        1.5960   30.5920   60.9690 C.3     0  <0>0        0.0091
     11  C17        3.6390   32.8530   60.6970 C.3     0  <0>0        0.0267
     12  C18       -0.8060   29.3390   58.7610 C.ar    0  <0>0        0.2661
     13  O1        -0.4670   29.0580   59.8960 O.2     0  <0>0       -0.2668
     14  N2        -1.7940   28.6550   58.1550 N.ar    0  <0>0       -0.2445
     15  C19       -2.1940   28.9440   56.9060 C.ar    0  <0>0        0.3346
     16  O2        -3.0940   28.2990   56.4050 O.2     0  <0>0       -0.2462
     17  C8        -2.0710   30.2150   54.8330 C.3     0  <0>0        0.1374
     18  C6        -1.6060   29.1190   53.9080 C.ar    0  <0>0       -0.0037
     19  C5        -2.0760   29.0660   52.6100 C.ar    0  <0>0       -0.0240
     20  C4        -1.6480   28.0600   51.7620 C.ar    0  <0>0       -0.0048
     21  C27       -3.0510   30.1030   52.1170 C.3     0  <0>0        0.0308
     22  C3        -0.7530   27.1090   52.2130 C.ar    0  <0>0       -0.0046
     23  C2        -0.2830   27.1630   53.5120 C.ar    0  <0>0       -0.0221
     24  C1         0.6920   26.1260   54.0040 C.3     0  <0>0        0.0310
     25  C7        -0.7140   28.1650   54.3610 C.ar    0  <0>0       -0.0070
     26  C20       -2.4560   27.5690   58.8810 C.3     0  <0>0        0.1403
     27  C21       -1.8060   26.2570   58.5270 C.ar    0  <0>0        0.0008
     28  C26       -2.3880   25.0690   58.9260 C.ar    0  <0>0       -0.0001
     29  C25       -1.7950   23.8640   58.5980 C.ar    0  <0>0        0.0294
     30  C24       -0.6120   23.8480   57.8800 C.ar    0  <0>0        0.1401
     31  C23       -0.0270   25.0400   57.4860 C.ar    0  <0>0        0.0294
     32  F1        -0.0280   22.6710   57.5630 F       0  <0>0       -0.2042
     33  C22       -0.6240   26.2430   57.8110 C.ar    0  <0>0       -0.0001
@<TRIPOS>BOND
     1    20    22   ar
     2    20    19   ar
     3    21    19    1
     4    22    23   ar
     5    19    18   ar
     6    23    24    1
     7    23    25   ar
     8    18    25   ar
     9    18    17    1
    10    17     1    1
    11     6     2   ar
    12     6     5   ar
    13     1     2   ar
    14     1    15   ar
    15    16    15    2
    16     2     3   ar
    17    15    14   ar
    18    31    33   ar
    19    31    30   ar
    20    32    30    1
    21     5     7    1
    22     5     4   ar
    23    33    27   ar
    24    30    29   ar
    25     3     4   ar
    26     3    12   ar
    27    14    12   ar
    28    14    26    1
    29     7     8    2
    30     4     9    1
    31    27    26    1
    32    27    28   ar
    33    29    28   ar
    34    12    13    2
    35     8     9    1
    36     8    11    1
    37     9    10    1
