@<TRIPOS>MOLECULE
ZINC14217236_replica-1.pdb
 27 30 0 0 0
SMALL
GASTEIGER

@<TRIPOS>ATOM
      1  C12        0.8980   30.4560   57.9710 C.ar    0  <0>0        0.0899
      2  C13        0.7380   31.7150   58.5250 C.ar    0  <0>0        0.0843
      3  C14        0.5810   31.8060   59.9690 C.ar    0  <0>0       -0.0088
      4  C15        0.6270   30.6240   60.6230 C.ar    0  <0>0        0.0052
      5  S1         0.8570   29.4100   59.3510 S.2     0  <0>0       -0.0762
      6  C16        0.5220   30.3880   62.0970 C.3     0  <0>0        0.0327
      7  C17       -0.6870   31.1560   62.6480 C.3     0  <0>0        0.0052
      8  C18       -0.2270   32.5530   63.0520 C.3     0  <0>0        0.0007
      9  C19        0.8880   33.0290   62.1240 C.3     0  <0>0        0.0047
     10  C20        0.3810   33.1330   60.6900 C.3     0  <0>0        0.0273
     11  C21        0.7250   32.8890   57.7040 C.1     0  <0>0        0.1019
     12  N3         0.7130   33.8190   57.0520 N.1     0  <0>0       -0.1908
     13  N2         1.0590   30.1150   56.6350 N.am    0  <0>0       -0.2770
     14  C11        0.0710   29.4720   55.9800 C.2     0  <0>0        0.2467
     15  O1        -0.9570   29.1920   56.5570 O.2     0  <0>0       -0.2729
     16  H13        1.8820   30.3390   56.1730 H       0  <0>0        0.1554
     17  C10        0.2460   29.1020   54.5290 C.3     0  <0>0        0.1773
     18  N1        -1.0720   28.9670   53.8960 N.pl3   0  <0>0       -0.3000
     19  C4        -1.0890   27.9030   52.9960 C.ar    0  <0>0        0.0441
     20  C3        -0.3240   26.7770   53.3090 C.ar    0  <0>0        0.0142
     21  C5        -1.8230   27.9190   51.8250 C.ar    0  <0>0       -0.0088
     22  C2        -0.3030   25.6900   52.4630 C.ar    0  <0>0        0.0012
     23  C1        -1.0430   25.7100   51.2950 C.ar    0  <0>0       -0.0002
     24  C6        -1.8000   26.8210   50.9790 C.ar    0  <0>0       -0.0030
     25  C7        -2.6610   29.1070   51.4220 C.3     0  <0>0        0.0294
     26  C8        -2.8620   30.0260   52.6290 C.3     0  <0>0        0.0261
     27  C9        -1.4980   30.2330   53.2970 C.3     0  <0>0        0.0916
@<TRIPOS>BOND
     1    24    23   ar
     2    24    21   ar
     3    23    22   ar
     4    25    21    1
     5    25    26    1
     6    21    19   ar
     7    22    20   ar
     8    26    27    1
     9    19    20   ar
    10    19    18    1
    11    27    18    1
    12    18    17    1
    13    17    14    1
    14    14    15    2
    15    14    13   am
    16    16    13    1
    17    13     1    1
    18    12    11    3
    19    11     2    1
    20     1     2   ar
    21     1     5   ar
    22     2     3   ar
    23     5     4   ar
    24     3     4   ar
    25     3    10    1
    26     4     6    1
    27    10     9    1
    28     6     7    1
    29     9     8    1
    30     7     8    1
