@<TRIPOS>MOLECULE
ZINC04286360_replica-1.pdb
 19 20 0 0 0
SMALL
GASTEIGER

@<TRIPOS>ATOM
      1  C4         7.2140   37.1810   59.0810 C.ar    0  <0>0        0.0572
      2  C5         6.9030   36.8890   57.7370 C.ar    0  <0>0        0.0431
      3  C6         5.6640   36.2650   57.4900 C.ar    0  <0>0       -0.0062
      4  C7         4.8720   36.0020   58.5780 C.ar    0  <0>0        0.1017
      5  S2         5.8310   36.6090   59.9480 S.2     0  <0>0       -0.0745
      6  C11        5.2300   35.8990   56.0730 C.3     0  <0>0        0.0277
      7  C12        6.4900   35.6520   55.2400 C.3     0  <0>0        0.0128
      8  C13        7.3770   36.8970   55.2530 C.3     0  <0>0        0.0695
      9  C14        7.7990   37.2140   56.6650 C.2     0  <0>0        0.1737
     10  O3         8.8740   37.7340   56.8900 O.2     0  <0>0       -0.2913
     11  C8         3.5530   35.3720   58.6060 C.2     0  <0>0        0.3470
     12  O1         3.4540   34.1760   58.8100 O.2     0  <0>0       -0.2443
     13  O2         2.4460   36.1160   58.4080 O.3     0  <0>0       -0.4451
     14  C9         1.2000   35.4210   58.3400 C.3     0  <0>0        0.2089
     15  C10        0.5960   35.5870   56.9430 C.3     0  <0>0        0.0513
     16  S1         8.6650   37.9460   59.7240 S.3     0  <0>0       -0.1071
     17  C3         9.0730   36.7820   61.0490 C.3     0  <0>0        0.0627
     18  C2        10.3350   36.0030   60.6710 C.3     0  <0>0        0.0120
     19  C1        10.0460   35.1220   59.4540 C.3     0  <0>0        0.0009
@<TRIPOS>BOND
     1     7     8    1
     2     7     6    1
     3     8     9    1
     4     6     3    1
     5     9    10    2
     6     9     2    1
     7    15    14    1
     8     3     2   ar
     9     3     4   ar
    10     2     1   ar
    11    14    13    1
    12    13    11    1
    13     4    11    1
    14     4     5   ar
    15    11    12    2
    16     1    16    1
    17     1     5   ar
    18    19    18    1
    19    16    17    1
    20    18    17    1
