@<TRIPOS>MOLECULE
ZINC08715423_replica-1.pdb
 27 30 0 0 0
SMALL
GASTEIGER

@<TRIPOS>ATOM
      1  N1         8.4540   35.5290   59.3910 N.am    0  <0>0       -0.2066
      2  C7         9.5710   35.3800   60.1410 C.2     0  <0>0        0.2459
      3  O1        10.3980   36.2700   60.2530 O.2     0  <0>0       -0.2733
      4  C8         9.7220   34.1150   60.7960 C.3     0  <0>0        0.1543
      5  C9        10.8220   33.7060   61.6530 C.2     0  <0>0       -0.0267
      6  C10       10.7590   32.4570   62.1680 C.2     0  <0>0        0.0023
      7  S1         9.2460   31.7720   61.5440 S.3     0  <0>0       -0.0639
      8  C11        8.7020   33.1570   60.5950 C.2     0  <0>0        0.1524
      9  N2         7.6270   33.3650   59.8440 N.2     0  <0>0       -0.3772
     10  C12        7.5180   34.5470   59.2520 C.2     0  <0>0        0.2213
     11  C17       11.7550   31.7970   63.0710 C.3     0  <0>0        0.0324
     12  C18       13.0550   32.6130   63.0410 C.3     0  <0>0        0.0055
     13  C19       12.7110   34.0930   63.2230 C.3     0  <0>0        0.0047
     14  C20       12.0030   34.6190   61.9740 C.3     0  <0>0        0.0231
     15  S2         6.1060   34.8610   58.2470 S.3     0  <0>0       -0.0520
     16  C13        4.9080   35.3230   59.5210 C.3     0  <0>0        0.1415
     17  C14        3.5600   35.3740   58.9330 C.1     0  <0>0       -0.0762
     18  C15        2.4850   35.4140   58.4640 C.1     0  <0>0       -0.0579
     19  C16        1.1360   35.4660   57.8750 C.3     0  <0>0        0.2143
     20  O2         1.1200   36.4120   56.8040 O.3     0  <0>0       -0.3697
     21  H10        1.9120   36.3920   56.2500 H       0  <0>0        0.2117
     22  C4         8.2510   36.7450   58.7260 C.ar    0  <0>0        0.0609
     23  C3         7.6500   37.8080   59.3890 C.ar    0  <0>0        0.0153
     24  C2         7.4490   39.0060   58.7320 C.ar    0  <0>0        0.0013
     25  C1         7.8480   39.1490   57.4150 C.ar    0  <0>0        0.0001
     26  C6         8.4460   38.0920   56.7530 C.ar    0  <0>0        0.0013
     27  C5         8.6530   36.8930   57.4070 C.ar    0  <0>0        0.0153
@<TRIPOS>BOND
     1    21    20    1
     2    26    27   ar
     3    26    25   ar
     4    20    19    1
     5    27    22   ar
     6    25    24   ar
     7    19    18    1
     8    15    10    1
     9    15    16    1
    10    18    17    3
    11    22    23   ar
    12    22     1    1
    13    24    23   ar
    14    17    16    1
    15    10     1    1
    16    10     9    2
    17     1     2   am
    18     9     8    2
    19     2     3    2
    20     2     4    1
    21     8     4    1
    22     8     7    1
    23     4     5    1
    24     7     6    1
    25     5    14    1
    26     5     6    2
    27    14    13    1
    28     6    11    1
    29    12    11    1
    30    12    13    1
