@<TRIPOS>MOLECULE
ZINC52256279_replica-1.pdb
 21 21 0 0 0
SMALL
GASTEIGER

@<TRIPOS>ATOM
      1  C5         0.2580   28.6350   56.3800 C.3     0  <0>0        0.1213
      2  C4        -0.7490   29.5420   57.0910 C.3     0  <0>0        0.1258
      3  C3        -0.2190   29.9130   58.4520 C.2     0  <0>0        0.3188
      4  O2        -0.7240   29.4440   59.4450 O.2     0  <0>0       -0.2500
      5  O1         0.8140   30.7630   58.5610 O.3     0  <0>0       -0.4484
      6  C2         0.6560   31.8640   59.4590 C.3     0  <0>0        0.2086
      7  C1         0.5960   33.1680   58.6620 C.3     0  <0>0        0.0513
      8  C15       -0.9640   30.8120   56.2640 C.3     0  <0>0        0.0130
      9  C16        0.1090   30.9020   55.1780 C.3     0  <0>0        0.0006
     10  C17       -2.3470   30.7690   55.6130 C.3     0  <0>0        0.0006
     11  C6        -0.4680   27.4120   55.8160 C.3     0  <0>0        0.0341
     12  C7         0.3790   26.7850   54.7060 C.3     0  <0>0        0.0248
     13  C8         0.6490   25.3170   55.0400 C.3     0  <0>0        0.0048
     14  C9        -0.3640   26.8740   53.3980 C.ar    0  <0>0       -0.0224
     15  C14       -0.4100   25.7800   52.5540 C.ar    0  <0>0       -0.0043
     16  C13       -1.0950   25.8580   51.3560 C.ar    0  <0>0       -0.0003
     17  C12       -1.7260   27.0340   50.9970 C.ar    0  <0>0       -0.0000
     18  C11       -1.6770   28.1300   51.8390 C.ar    0  <0>0       -0.0003
     19  C10       -0.9960   28.0500   53.0390 C.ar    0  <0>0       -0.0043
     20  O3         1.2550   28.2110   57.3110 O.3     0  <0>0       -0.3839
     21  H19        2.0260   27.7960   56.8990 H       0  <0>0        0.2104
@<TRIPOS>BOND
     1    17    16   ar
     2    17    18   ar
     3    16    15   ar
     4    18    19   ar
     5    15    14   ar
     6    19    14   ar
     7    14    12    1
     8    12    13    1
     9    12    11    1
    10     9     8    1
    11    10     8    1
    12    11     1    1
    13     8     2    1
    14     1     2    1
    15     1    20    1
    16    21    20    1
    17     2     3    1
    18     3     5    1
    19     3     4    2
    20     5     6    1
    21     7     6    1
