@<TRIPOS>MOLECULE
ZINC37543586_replica-1.pdb
 23 24 0 0 0
SMALL
GASTEIGER

@<TRIPOS>ATOM
      1  O1        -0.5820   31.0860   56.9560 O.3     0  <0>0       -0.4714
      2  C5         0.0600   32.0880   57.6120 C.ar    0  <0>0        0.1388
      3  C4         0.2880   33.2960   56.9760 C.ar    0  <0>0        0.0386
      4  C3         0.9480   34.3220   57.6530 C.ar    0  <0>0        0.0226
      5  C2         1.3740   34.1230   58.9690 C.ar    0  <0>0        0.0019
      6  C1         1.1420   32.9140   59.5920 C.ar    0  <0>0        0.0032
      7  C6         0.4880   31.8990   58.9200 C.ar    0  <0>0        0.0369
      8  C15        1.1940   35.6140   56.9820 C.2     0  <0>0        0.0781
      9  S1         2.7980   36.1540   56.7250 S.2     0  <0>0       -0.0352
     10  N1         0.1560   36.3700   56.5740 N.am    0  <0>0       -0.3517
     11  H12       -0.7540   36.0640   56.7200 H       0  <0>0        0.1428
     12  H13        0.3170   37.2180   56.1330 H       0  <0>0        0.1428
     13  C7        -0.7360   31.2300   55.5420 C.3     0  <0>0        0.2525
     14  C8        -0.1150   30.0230   54.8360 C.3     0  <0>0        0.2525
     15  O2        -1.0970   28.9950   54.6980 O.3     0  <0>0       -0.4697
     16  C9        -1.1790   28.3780   53.4890 C.ar    0  <0>0        0.1596
     17  C14       -1.9690   28.9190   52.4830 C.ar    0  <0>0        0.0924
     18  C13       -2.0440   28.2930   51.2530 C.ar    0  <0>0        0.0145
     19 Cl         -2.8540   30.3850   52.7680 Cl      0  <0>0       -0.0791
     20  C12       -1.3440   27.1210   51.0270 C.ar    0  <0>0        0.0019
     21  C11       -0.5620   26.5770   52.0290 C.ar    0  <0>0        0.0145
     22  C10       -0.4770   27.2030   53.2590 C.ar    0  <0>0        0.0924
     23 Cl          0.5060   26.5190   54.5150 Cl      0  <0>0       -0.0791
@<TRIPOS>BOND
     1    20    18   ar
     2    20    21   ar
     3    18    17   ar
     4    21    22   ar
     5    17    19    1
     6    17    16   ar
     7    22    16   ar
     8    22    23    1
     9    16    15    1
    10    15    14    1
    11    14    13    1
    12    13     1    1
    13    12    10    1
    14    10    11    1
    15    10     8    1
    16     9     8    2
    17     1     2    1
    18     3     2   ar
    19     3     4   ar
    20     8     4    1
    21     2     7   ar
    22     4     5   ar
    23     7     6   ar
    24     5     6   ar
