@<TRIPOS>MOLECULE
ZINC37780715_replica-1.pdb
 21 21 0 0 0
SMALL
GASTEIGER

@<TRIPOS>ATOM
      1  C1         8.5130   38.4710   59.4880 C.3     0  <0>0        0.0324
      2  C2         9.1580   37.1140   59.5960 C.ar    0  <0>0       -0.0057
      3  C3         9.8960   36.7860   60.7160 C.ar    0  <0>0        0.0339
      4  C4        10.4890   35.5360   60.8140 C.ar    0  <0>0        0.1381
      5  C5        10.3420   34.6150   59.7880 C.ar    0  <0>0        0.0381
      6  C6         9.6050   34.9410   58.6670 C.ar    0  <0>0        0.0171
      7  C7         9.0060   36.1910   58.5700 C.ar    0  <0>0        0.0408
      8  N1         8.2530   36.5190   57.4370 N.pl3   0  <0>0       -0.3342
      9  H8         8.7000   36.8140   56.6270 H       0  <0>0        0.1468
     10  C8         6.7930   36.4180   57.4720 C.3     0  <0>0        0.0714
     11  C9         6.2340   36.6200   56.0610 C.3     0  <0>0        0.0212
     12  C10        6.3880   35.0370   57.9880 C.3     0  <0>0        0.0467
     13  C11        5.5470   35.1920   59.2560 C.3     0  <0>0        0.0946
     14  C12        6.2380   34.4710   60.4160 C.3     0  <0>0        0.0297
     15  C13        5.4010   36.6770   59.5930 C.3     0  <0>0        0.0297
     16  O1         4.2540   34.6210   59.0430 O.3     0  <0>0       -0.3558
     17  C14        3.2310   35.5830   58.7790 C.3     0  <0>0        0.1739
     18  O2        11.2160   35.2140   61.9180 O.3     0  <0>0       -0.4792
     19  C15       11.9980   34.0190   61.8540 C.3     0  <0>0        0.1661
     20  C16       13.4460   34.3360   62.2340 C.3     0  <0>0        0.0472
     21  C17       11.4280   32.9850   62.8280 C.3     0  <0>0        0.0472
@<TRIPOS>BOND
     1    11    10    1
     2     9     8    1
     3     8    10    1
     4     8     7    1
     5    10    12    1
     6    12    13    1
     7     7     6   ar
     8     7     2   ar
     9     6     5   ar
    10    17    16    1
    11    16    13    1
    12    13    15    1
    13    13    14    1
    14     1     2    1
    15     2     3   ar
    16     5     4   ar
    17     3     4   ar
    18     4    18    1
    19    19    18    1
    20    19    20    1
    21    19    21    1
