@<TRIPOS>MOLECULE
ZINC35560627_replica-1.pdb
 32 34 0 0 0
SMALL
GASTEIGER

@<TRIPOS>ATOM
      1  C11        7.4640   34.3300   60.0010 C.3     0  <0>0        0.0582
      2  C10        8.7250   33.8010   60.6330 C.ar    0  <0>0        0.0005
      3  C7         9.8080   34.5980   61.2160 C.ar    0  <0>0        0.0130
      4  C6        10.0270   35.9670   61.3750 C.ar    0  <0>0        0.0012
      5  C8        10.7660   33.6750   61.6750 C.ar    0  <0>0        0.0523
      6  C5        11.1730   36.4050   61.9790 C.ar    0  <0>0       -0.0002
      7  C4        12.1190   35.4990   62.4370 C.ar    0  <0>0       -0.0028
      8  C3        11.9210   34.1440   62.2920 C.ar    0  <0>0       -0.0066
      9  N1        10.2890   32.4170   61.3840 N.ar    0  <0>0       -0.3525
     10  H1        10.7460   31.5860   61.5910 H       0  <0>0        0.1660
     11  C9         9.0770   32.5110   60.7580 C.ar    0  <0>0        0.0684
     12  C2        12.9570   33.1700   62.7940 C.3     0  <0>0        0.0278
     13  C1        14.3520   33.7730   62.6160 C.3     0  <0>0        0.0051
     14  C12        6.4570   33.1880   59.8400 C.3     0  <0>0        0.0939
     15  C13        5.0760   33.7610   59.6560 C.2     0  <0>0        0.2231
     16  O1         4.4730   34.2120   60.6070 O.2     0  <0>0       -0.2751
     17  N2         4.5090   33.7730   58.4330 N.am    0  <0>0       -0.3043
     18  H14        4.9900   33.4110   57.6720 H       0  <0>0        0.1494
     19  C14        3.1650   34.3290   58.2530 C.3     0  <0>0        0.0893
     20  C15        3.2730   35.7560   57.7120 C.3     0  <0>0        0.0196
     21  C16        4.4110   35.8310   56.6930 C.3     0  <0>0        0.0017
     22  C17        1.9570   36.1470   57.0370 C.3     0  <0>0        0.0017
     23  C18        7.7860   34.9100   58.6470 C.ar    0  <0>0        0.0191
     24  C23        7.7530   36.2810   58.4550 C.ar    0  <0>0        0.1687
     25  C22        8.0560   36.8130   57.2060 C.ar    0  <0>0        0.1721
     26  C21        8.3800   35.9690   56.1560 C.ar    0  <0>0        0.0400
     27  C20        8.4050   34.6000   56.3530 C.ar    0  <0>0        0.0030
     28  C19        8.1100   34.0720   57.5960 C.ar    0  <0>0       -0.0007
     29  O2         7.4290   37.1050   59.4870 O.3     0  <0>0       -0.4687
     30  C24        6.0400   37.3670   59.6970 C.3     0  <0>0        0.2526
     31  O3         8.0310   38.1600   57.0140 O.3     0  <0>0       -0.4684
     32  C25        7.3050   38.6400   55.8810 C.3     0  <0>0        0.2526
@<TRIPOS>BOND
     1    32    31    1
     2    26    27   ar
     3    26    25   ar
     4    27    28   ar
     5    21    20    1
     6    31    25    1
     7    22    20    1
     8    25    24   ar
     9    28    23   ar
    10    18    17    1
    11    20    19    1
    12    19    17    1
    13    17    15   am
    14    24    23   ar
    15    24    29    1
    16    23     1    1
    17    29    30    1
    18    15    14    1
    19    15    16    2
    20    14     1    1
    21     1     2    1
    22     2    11   ar
    23     2     3   ar
    24    11     9   ar
    25     3     4   ar
    26     3     5   ar
    27     4     6   ar
    28     9    10    1
    29     9     5   ar
    30     5     8   ar
    31     6     7   ar
    32     8     7   ar
    33     8    12    1
    34    13    12    1
