@<TRIPOS>MOLECULE
ZINC12346653_replica-1.pdb
 28 30 0 0 0
SMALL
GASTEIGER

@<TRIPOS>ATOM
      1  C7         6.1690   35.1420   58.7650 C.2     0  <0>0        0.0871
      2  N1         6.6250   34.2690   59.6090 N.2     0  <0>0       -0.1824
      3  N2         7.9110   34.4180   60.1460 N.am    0  <0>0       -0.2026
      4  C8         8.5760   33.3410   60.6100 C.2     0  <0>0        0.2645
      5  O1         8.0600   32.2410   60.5630 O.2     0  <0>0       -0.2684
      6  H6         8.3220   35.2950   60.1840 H       0  <0>0        0.1776
      7  C9         9.9310   33.4980   61.1750 C.ar    0  <0>0        0.0550
      8  C18       10.5010   32.4590   61.8940 C.ar    0  <0>0        0.0046
      9  C17       11.7860   32.6170   62.4340 C.ar    0  <0>0        0.0001
     10  C12       12.4860   33.8330   62.2270 C.ar    0  <0>0        0.0000
     11  C16       12.4000   31.5840   63.1650 C.ar    0  <0>0        0.0000
     12  C11       11.8800   34.8700   61.4920 C.ar    0  <0>0        0.0001
     13  C13       13.7740   33.9850   62.7650 C.ar    0  <0>0        0.0000
     14  C10       10.6340   34.7010   60.9810 C.ar    0  <0>0        0.0046
     15  C14       14.3360   32.9650   63.4710 C.ar    0  <0>0        0.0000
     16  C15       13.6500   31.7680   63.6710 C.ar    0  <0>0        0.0000
     17  C4         6.9450   36.3630   58.4760 C.ar    0  <0>0        0.0159
     18  C3         6.8180   37.4860   59.2980 C.ar    0  <0>0        0.0012
     19  C2         7.5470   38.6230   59.0220 C.ar    0  <0>0        0.0000
     20  C1         8.4010   38.6550   57.9340 C.ar    0  <0>0        0.0000
     21  C6         8.5320   37.5470   57.1150 C.ar    0  <0>0        0.0000
     22  C5         7.8140   36.4010   57.3820 C.ar    0  <0>0        0.0012
     23  C19        4.8470   34.9110   58.0800 C.3     0  <0>0        0.1052
     24  S1         4.7690   33.1990   57.4810 S.3     0  <0>0       -0.1219
     25  C20        6.1030   33.1040   56.2550 C.3     0  <0>0        0.1718
     26  C21        7.1940   32.2020   56.7690 C.2     0  <0>0        0.3757
     27  O2         8.2280   32.6760   57.1760 O.co2   0  <0>0       -0.2447
     28  O3         7.0180   30.8720   56.7780 O.co2   0  <0>0       -0.2447
@<TRIPOS>BOND
     1    25    26    1
     2    25    24    1
     3    26    28   ar
     4    26    27   ar
     5    21    22   ar
     6    21    20   ar
     7    22    17   ar
     8    24    23    1
     9    20    19   ar
    10    23     1    1
    11    17     1    1
    12    17    18   ar
    13     1     2    2
    14    19    18   ar
    15     2     3    1
    16     3     6    1
    17     3     4   am
    18     5     4    2
    19     4     7    1
    20    14     7   ar
    21    14    12   ar
    22     7     8   ar
    23    12    10   ar
    24     8     9   ar
    25    10     9   ar
    26    10    13   ar
    27     9    11   ar
    28    13    15   ar
    29    11    16   ar
    30    15    16   ar
