@<TRIPOS>MOLECULE
ZINC09942606_replica-1.pdb
 30 34 0 0 0
SMALL
GASTEIGER

@<TRIPOS>ATOM
      1  C8        -2.1310   30.3580   56.1450 C.3     0  <0>0        0.1140
      2  C9        -2.1850   29.7180   54.7530 C.3     0  <0>0        0.0850
      3  C10       -0.8290   29.2280   54.3300 C.2     0  <0>0        0.1245
      4  N1         0.2750   29.8420   54.6630 N.2     0  <0>0       -0.3325
      5  C11        0.2020   30.9250   55.4830 C.1     0  <0>0        0.2028
      6  N2        -0.9340   31.2010   56.2090 N.pl3   0  <0>0       -0.2241
      7  C12       -0.6970   32.3230   56.9310 C.3     0  <0>0        0.1630
      8  C13        0.5800   32.7110   56.6430 C.2     0  <0>0        0.1432
      9  N3         1.0980   31.8350   55.7590 N.2     0  <0>0       -0.3308
     10  C5        -2.0550   29.2830   57.1980 C.ar    0  <0>0       -0.0030
     11  C4        -2.8750   28.1730   57.1130 C.ar    0  <0>0        0.0005
     12  C3        -2.8070   27.1870   58.0770 C.ar    0  <0>0        0.0366
     13  C2        -1.9150   27.3100   59.1320 C.ar    0  <0>0        0.1387
     14  C7        -1.0930   28.4240   59.2160 C.ar    0  <0>0        0.0366
     15  C6        -1.1600   29.4060   58.2450 C.ar    0  <0>0        0.0005
     16  O1        -1.8460   26.3400   60.0830 O.3     0  <0>0       -0.4714
     17  C1        -2.4410   25.0800   59.7660 C.3     0  <0>0        0.2525
     18  C20       -0.7410   28.0110   53.5090 C.ar    0  <0>0        0.0265
     19  C25       -0.0570   26.8880   53.9860 C.ar    0  <0>0        0.0027
     20  C24        0.0210   25.7510   53.2110 C.ar    0  <0>0        0.0068
     21  C23       -0.5760   25.7200   51.9610 C.ar    0  <0>0        0.0346
     22  C22       -1.2540   26.8270   51.4810 C.ar    0  <0>0        0.0068
     23 Br         -0.4620   24.1550   50.9050 Br      0  <0>0       -0.0490
     24  C21       -1.3460   27.9690   52.2480 C.ar    0  <0>0        0.0027
     25  C14        1.2780   33.8940   57.2060 C.ar    0  <0>0        0.0281
     26  C19        0.8460   34.4560   58.4060 C.ar    0  <0>0        0.0023
     27  C18        1.5000   35.5540   58.9250 C.ar    0  <0>0        0.0001
     28  C17        2.5820   36.0990   58.2560 C.ar    0  <0>0        0.0000
     29  C16        3.0140   35.5460   57.0640 C.ar    0  <0>0        0.0001
     30  C15        2.3710   34.4430   56.5380 C.ar    0  <0>0        0.0023
@<TRIPOS>BOND
     1    23    21    1
     2    22    21   ar
     3    22    24   ar
     4    21    20   ar
     5    24    18   ar
     6    20    19   ar
     7    18    19   ar
     8    18     3    1
     9     3     4    2
    10     3     2    1
    11     4     5    2
    12     2     1    1
    13     5     9    2
    14     5     6    1
    15     9     8    2
    16     1     6    1
    17     1    10    1
    18     6     7    1
    19    30    29   ar
    20    30    25   ar
    21     8     7    1
    22     8    25    1
    23    29    28   ar
    24    11    10   ar
    25    11    12   ar
    26    10    15   ar
    27    25    26   ar
    28    12    13   ar
    29    15    14   ar
    30    28    27   ar
    31    26    27   ar
    32    13    14   ar
    33    13    16    1
    34    17    16    1
