@<TRIPOS>MOLECULE
ZINC05022146_replica-1.pdb
 19 19 0 0 0
SMALL
GASTEIGER

@<TRIPOS>ATOM
      1  C5         7.1650   36.7680   57.9300 C.3     0  <0>0        0.1373
      2  C6         8.5510   36.2630   58.3420 C.3     0  <0>0        0.0769
      3  C7         8.5580   35.9850   59.8470 C.3     0  <0>0        0.2851
      4  O1         7.5210   35.0510   60.1580 O.3     0  <0>0       -0.2422
      5  S1         6.1220   35.5450   59.8130 S.O     0  <0>0        0.3073
      6  O2         5.3100   34.3850   59.9300 O.2     0  <0>0       -0.1962
      7  O3         6.1810   35.8040   58.3150 O.3     0  <0>0       -0.2569
      8  C8         8.3190   37.2890   60.6090 C.3     0  <0>0        0.4290
      9  F1         9.1580   38.2870   60.1010 F       0  <0>0       -0.1672
     10  F2         6.9850   37.6800   60.4580 F       0  <0>0       -0.1672
     11  F3         8.5970   37.0930   61.9670 F       0  <0>0       -0.1672
     12  C9         9.9120   35.3960   60.2510 C.3     0  <0>0        0.4290
     13  F4         9.7180   34.3890   61.2000 F       0  <0>0       -0.1672
     14  F5        10.5420   34.8600   59.1230 F       0  <0>0       -0.1672
     15  F6        10.7140   36.4050   60.7970 F       0  <0>0       -0.1672
     16  C2         7.1220   36.9640   56.4140 C.3     0  <0>0        0.0265
     17  C1         5.7700   36.4890   55.8760 C.3     0  <0>0        0.0025
     18  C3         7.3090   38.4460   56.0860 C.3     0  <0>0        0.0025
     19  C4         8.2430   36.1530   55.7610 C.3     0  <0>0        0.0025
@<TRIPOS>BOND
     1    19    16    1
     2    17    16    1
     3    18    16    1
     4    16     1    1
     5     1     7    1
     6     1     2    1
     7     7     5    1
     8     2     3    1
     9    14    12    1
    10     5     6    2
    11     5     4    1
    12     3     4    1
    13     3    12    1
    14     3     8    1
    15     9     8    1
    16    12    15    1
    17    12    13    1
    18    10     8    1
    19     8    11    1
