@<TRIPOS>MOLECULE
ZINC48462418_replica-1.pdb
 19 21 0 0 0
SMALL
GASTEIGER

@<TRIPOS>ATOM
      1  N1        -0.9560   30.0390   55.4460 N.ar    0  <0>0       -0.2579
      2  C9        -1.4910   29.2560   56.4680 C.ar    0  <0>0        0.1003
      3  C10       -2.5570   28.3710   56.5300 C.ar    0  <0>0        0.0210
      4  C11       -2.8480   27.7300   57.7180 C.ar    0  <0>0        0.0084
      5  C12       -2.0810   27.9690   58.8450 C.ar    0  <0>0        0.0377
      6  C13       -1.0180   28.8500   58.7910 C.ar    0  <0>0        0.0458
      7  C14       -0.7170   29.4980   57.6020 C.ar    0  <0>0        0.1665
      8  O1         0.2390   30.3920   57.2530 O.2     0  <0>0       -0.4067
      9  C15        0.0950   30.7090   55.9580 C.ar    0  <0>0        0.4222
     10  O2         0.8010   31.4840   55.3420 O.2     0  <0>0       -0.2226
     11 Br         -2.4900   27.0870   60.4680 Br      0  <0>0       -0.0489
     12  C8        -1.4420   30.1140   54.0650 C.3     0  <0>0        0.1389
     13  C5        -1.1880   28.8000   53.3710 C.ar    0  <0>0        0.0006
     14  C4        -0.3730   27.8540   53.9610 C.ar    0  <0>0       -0.0027
     15  C3        -0.1410   26.6480   53.3250 C.ar    0  <0>0       -0.0045
     16  C2        -0.7260   26.3900   52.0990 C.ar    0  <0>0       -0.0219
     17  C1        -0.4730   25.0760   51.4060 C.3     0  <0>0        0.0310
     18  C7        -1.5370   27.3400   51.5070 C.ar    0  <0>0       -0.0045
     19  C6        -1.7720   28.5430   52.1450 C.ar    0  <0>0       -0.0027
@<TRIPOS>BOND
     1    17    16    1
     2    18    16   ar
     3    18    19   ar
     4    16    15   ar
     5    19    13   ar
     6    15    14   ar
     7    13    14   ar
     8    13    12    1
     9    12     1    1
    10    10     9    2
    11     1     9   ar
    12     1     2   ar
    13     9     8   ar
    14     2     3   ar
    15     2     7   ar
    16     3     4   ar
    17     8     7   ar
    18     7     6   ar
    19     4     5   ar
    20     6     5   ar
    21     5    11    1
