@<TRIPOS>MOLECULE
ZINC04356990_replica-1.pdb
 31 33 0 0 0
SMALL
GASTEIGER

@<TRIPOS>ATOM
      1  C11        8.2520   34.6070   58.0520 C.2     0  <0>0        0.0441
      2  C12        9.0850   34.4560   59.1500 C.2     0  <0>0        0.0330
      3  C13        9.6810   35.5870   59.7260 C.2     0  <0>0        0.1308
      4  N2         9.4710   36.7980   59.2500 N.2     0  <0>0       -0.4056
      5  C14        8.6790   37.0100   58.1970 C.2     0  <0>0        0.1169
      6  C15        8.0380   35.9200   57.5570 C.3     0  <0>0        0.1009
      7  C16        7.2100   36.1540   56.4520 C.2     0  <0>0       -0.0149
      8  C17        7.0290   37.4270   56.0010 C.2     0  <0>0       -0.0038
      9  C18        7.6560   38.5020   56.6280 C.2     0  <0>0        0.0020
     10  C19        8.4670   38.3110   57.7040 C.2     0  <0>0        0.0282
     11  C10        7.6050   33.4380   57.4180 C.2     0  <0>0        0.2426
     12  N1         6.4180   32.9920   57.8780 N.am    0  <0>0       -0.3027
     13  H21        5.9900   33.4380   58.6260 H       0  <0>0        0.1497
     14  O1         8.1420   32.8800   56.4810 O.2     0  <0>0       -0.2705
     15  C8         5.7780   31.8350   57.2490 C.3     0  <0>0        0.0718
     16  C9         6.2000   30.5590   57.9810 C.3     0  <0>0        0.0213
     17  C7         4.2580   31.9890   57.3280 C.3     0  <0>0        0.0174
     18  C6         3.8800   33.4530   57.0900 C.3     0  <0>0       -0.0211
     19  C5         3.0360   33.5620   55.8180 C.3     0  <0>0       -0.0773
     20  N3         2.7120   34.9850   55.5830 N.4     0  <0>0        0.3869
     21  H32        1.9280   35.0430   54.9230 H       0  <0>0       -0.0797
     22  C2         2.3200   35.6320   56.8530 C.3     0  <0>0       -0.0774
     23  C1         0.7950   35.7140   56.9640 C.3     0  <0>0       -0.0250
     24  C3         3.8810   35.6790   55.0020 C.3     0  <0>0       -0.0774
     25  C4         4.5580   34.7490   53.9930 C.3     0  <0>0       -0.0250
     26  C20       10.5730   35.4170   60.9000 C.ar    0  <0>0        0.0296
     27  C25       11.1350   34.1720   61.1770 C.ar    0  <0>0        0.0025
     28  C24       11.9640   34.0210   62.2700 C.ar    0  <0>0        0.0001
     29  C23       12.2350   35.1010   63.0910 C.ar    0  <0>0        0.0000
     30  C22       11.6790   36.3400   62.8200 C.ar    0  <0>0        0.0001
     31  C21       10.8540   36.5040   61.7270 C.ar    0  <0>0        0.0025
@<TRIPOS>BOND
     1    25    24    1
     2    21    20    1
     3    24    20    1
     4    20    19    1
     5    20    22    1
     6    19    18    1
     7     8     7    2
     8     8     9    1
     9     7     6    1
    10    14    11    2
    11     9    10    2
    12    22    23    1
    13    18    17    1
    14    15    17    1
    15    15    12    1
    16    15    16    1
    17    11    12   am
    18    11     1    1
    19     6     1    1
    20     6     5    1
    21    10     5    1
    22    12    13    1
    23     1     2    2
    24     5     4    2
    25     2     3    1
    26     4     3    2
    27     3    26    1
    28    26    27   ar
    29    26    31   ar
    30    27    28   ar
    31    31    30   ar
    32    28    29   ar
    33    30    29   ar
