@<TRIPOS>MOLECULE
ZINC22996505_replica-1.pdb
 23 25 0 0 0
SMALL
GASTEIGER

@<TRIPOS>ATOM
      1  C7        10.9400   34.8410   61.4080 C.1     0  <0>0        0.0874
      2  N1        10.9210   36.0940   61.8410 N.2     0  <0>0       -0.1822
      3  C8        10.1230   36.9920   61.2890 C.2     0  <0>0        0.1132
      4  C9         9.2960   36.6130   60.2440 C.2     0  <0>0        0.0560
      5  C10        9.3380   35.2860   59.8100 C.2     0  <0>0        0.1627
      6  N2        10.1700   34.4370   60.4090 N.2     0  <0>0       -0.3488
      7  C11        8.4730   34.8300   58.6940 C.ar    0  <0>0        0.1222
      8  N3         8.9010   34.9370   57.4440 N.ar    0  <0>0       -0.2404
      9  C15        8.1670   34.5390   56.4260 C.ar    0  <0>0        0.1028
     10  C14        6.9070   34.0020   56.6240 C.ar    0  <0>0        0.0914
     11  C13        6.4180   33.8770   57.9150 C.ar    0  <0>0        0.0184
     12  C12        7.2140   34.2990   58.9690 C.ar    0  <0>0        0.0778
     13 Cl          6.6510   34.1660   60.6050 Cl      0  <0>0       -0.0806
     14  C16        6.0770   33.5570   55.4480 C.3     0  <0>0        0.4200
     15  F1         6.7470   32.5360   54.7640 F       0  <0>0       -0.1658
     16  F2         4.8420   33.0820   55.9020 F       0  <0>0       -0.1658
     17  F3         5.8720   34.6390   54.5860 F       0  <0>0       -0.1658
     18  C4        11.8520   33.8660   62.0570 C.ar    0  <0>0        0.0740
     19  C3        13.2060   34.1660   62.2030 C.ar    0  <0>0        0.0110
     20  C2        14.0500   33.2560   62.8060 C.ar    0  <0>0        0.0007
     21  C1        13.5540   32.0500   63.2670 C.ar    0  <0>0        0.0000
     22  C6        12.2120   31.7470   63.1260 C.ar    0  <0>0        0.0007
     23  C5        11.3580   32.6500   62.5220 C.ar    0  <0>0        0.0110
@<TRIPOS>BOND
     1    17    14    1
     2    15    14    1
     3    14    16    1
     4    14    10    1
     5     9    10   ar
     6     9     8   ar
     7    10    11   ar
     8     8     7   ar
     9    11    12   ar
    10     7    12   ar
    11     7     5    1
    12    12    13    1
    13     5     4    1
    14     5     6    2
    15     4     3    2
    16     6     1    2
    17     3     2    1
    18     1     2    2
    19     1    18    1
    20    18    19   ar
    21    18    23   ar
    22    19    20   ar
    23    23    22   ar
    24    20    21   ar
    25    22    21   ar
