@<TRIPOS>MOLECULE
ZINC05383259_replica-1.pdb
 28 32 0 0 0
SMALL
GASTEIGER

@<TRIPOS>ATOM
      1  C3         9.4970   35.4900   60.1700 C.3     0  <0>0        0.1713
      2  C4         8.1650   35.9520   60.7720 C.3     0  <0>0        0.0438
      3  C5         7.5770   37.0090   59.8420 C.3     0  <0>0        0.0060
      4  C6         7.4020   36.5110   58.4370 C.3     0  <0>0        0.0254
      5  C7         5.9780   36.4210   57.9780 C.3     0  <0>0        0.0023
      6  C8         5.1950   35.4020   58.8190 C.3     0  <0>0        0.0002
      7  C9         3.7110   35.6140   58.5290 C.3     0  <0>0        0.0026
      8  C10        3.3690   35.4730   57.0720 C.3     0  <0>0        0.0262
      9  C11        4.3520   36.0960   56.0900 C.3     0  <0>0        0.0027
     10  C12        5.8120   36.0630   56.5160 C.3     0  <0>0        0.0027
     11  C13        6.4570   34.7270   56.1920 C.3     0  <0>0        0.0320
     12  C14        7.8580   34.5810   56.7330 C.3     0  <0>0        0.1398
     13  C15        8.3150   35.4300   57.9320 C.3     0  <0>0        0.1208
     14  C16        9.2010   34.6680   58.9230 C.3     0  <0>0        0.0732
     15  O3         8.8310   35.6040   56.5990 O.3     0  <0>0       -0.3561
     16  C17        4.1870   35.2700   54.7870 C.3     0  <0>0        0.0028
     17  C18        3.7970   33.8560   55.2710 C.3     0  <0>0        0.0311
     18  C19        3.0170   34.0720   56.5870 C.3     0  <0>0        0.1065
     19  C22        2.0680   36.2920   56.8970 C.3     0  <0>0        0.0027
     20  C23        7.9080   37.7250   57.6580 C.3     0  <0>0        0.0024
     21  O2        10.2110   34.6730   61.1350 O.3     0  <0>0       -0.4522
     22  C2        11.2840   35.2240   61.7250 C.2     0  <0>0        0.3174
     23  C1        12.5530   34.4260   61.8790 C.3     0  <0>0        0.1212
     24  O1        11.2320   36.3610   62.1330 O.2     0  <0>0       -0.2501
     25  C20        3.3770   32.9990   57.5780 C.2     0  <0>0       -0.0001
     26  C21        4.2840   32.1040   57.2730 C.2     0  <0>0       -0.0025
     27  O4         1.6070   34.0020   56.3150 O.3     0  <0>0       -0.3827
     28  H28        1.0600   33.8690   57.1010 H       0  <0>0        0.2107
@<TRIPOS>BOND
     1    16    17    1
     2    16     9    1
     3    17    18    1
     4     9    10    1
     5     9     8    1
     6    11    10    1
     7    11    12    1
     8    27    18    1
     9    27    28    1
    10    10     5    1
    11    18     8    1
    12    18    25    1
    13    15    12    1
    14    15    13    1
    15    12    13    1
    16    19     8    1
    17     8     7    1
    18    26    25    2
    19    20     4    1
    20    13     4    1
    21    13    14    1
    22     5     4    1
    23     5     6    1
    24     4     3    1
    25     7     6    1
    26    14     1    1
    27     3     2    1
    28     1     2    1
    29     1    21    1
    30    21    22    1
    31    22    23    1
    32    22    24    2
