@<TRIPOS>MOLECULE
ZINC01076361_replica-1.pdb
 25 28 0 0 0
SMALL
GASTEIGER

@<TRIPOS>ATOM
      1  N1         2.7030   33.5760   57.9890 N.pl3   0  <0>0       -0.3023
      2  C7         1.8460   34.1880   56.9640 C.3     0  <0>0        0.1124
      3  C8         0.6970   33.2360   56.6270 C.3     0  <0>0        0.1150
      4  N2         1.2470   31.9570   56.1550 N.pl3   0  <0>0       -0.2752
      5  C9         2.1040   31.3440   57.1800 C.3     0  <0>0        0.1150
      6  C10        3.2530   32.2980   57.5170 C.3     0  <0>0        0.1124
      7  C11        0.2350   31.0920   55.7720 C.2     0  <0>0        0.2106
      8  S1        -1.4810   31.0690   56.2710 S.3     0  <0>0       -0.0594
      9  C13       -1.9800   29.6550   55.2980 C.3     0  <0>0        0.1247
     10  C12       -0.8010   29.3350   54.6880 C.2     0  <0>0        0.1225
     11  N3         0.2840   30.0630   54.9460 N.2     0  <0>0       -0.3843
     12  C14       -0.7270   28.1860   53.7530 C.ar    0  <0>0        0.0265
     13  C19       -1.3490   28.2580   52.5080 C.ar    0  <0>0        0.0045
     14  C18       -1.2780   27.1860   51.6410 C.ar    0  <0>0        0.0297
     15  C17       -0.5900   26.0400   52.0080 C.ar    0  <0>0        0.1401
     16  C16        0.0290   25.9650   53.2450 C.ar    0  <0>0        0.0297
     17  F1        -0.5240   24.9940   51.1560 F       0  <0>0       -0.2042
     18  C15       -0.0330   27.0330   54.1150 C.ar    0  <0>0        0.0045
     19  C5         3.7240   34.4490   58.3760 C.ar    0  <0>0        0.0758
     20  C4         4.0990   34.5360   59.7130 C.ar    0  <0>0        0.1533
     21  C3         5.1090   35.4000   60.0910 C.ar    0  <0>0        0.0309
     22  F2         3.4770   33.7740   60.6400 F       0  <0>0       -0.2029
     23  C2         5.7460   36.1780   59.1420 C.ar    0  <0>0        0.0024
     24  C1         5.3760   36.0940   57.8120 C.ar    0  <0>0        0.0014
     25  C6         4.3700   35.2300   57.4260 C.ar    0  <0>0        0.0168
@<TRIPOS>BOND
     1    17    15    1
     2    14    15   ar
     3    14    13   ar
     4    15    16   ar
     5    13    12   ar
     6    16    18   ar
     7    12    18   ar
     8    12    10    1
     9    10    11    2
    10    10     9    1
    11    11     7    2
    12     9     8    1
    13     7     4    1
    14     7     8    1
    15     4     3    1
    16     4     5    1
    17     3     2    1
    18     2     1    1
    19     5     6    1
    20    25    24   ar
    21    25    19   ar
    22     6     1    1
    23    24    23   ar
    24     1    19    1
    25    19    20   ar
    26    23    21   ar
    27    20    21   ar
    28    20    22    1
