@<TRIPOS>MOLECULE
ZINC03202154_replica-1.pdb
 28 30 0 0 0
SMALL
GASTEIGER

@<TRIPOS>ATOM
      1  N3         1.4860   31.2550   56.0820 N.am    0  <0>0       -0.2044
      2  C12        0.2230   31.3170   56.5490 C.2     0  <0>0        0.2613
      3  O1        -0.1920   32.3470   57.0380 O.2     0  <0>0       -0.2715
      4  H16        1.8180   30.4320   55.6900 H       0  <0>0        0.1773
      5  N2         2.3180   32.3790   56.1610 N.2     0  <0>0       -0.1776
      6  C11        3.3310   32.3810   56.9720 C.2     0  <0>0        0.1176
      7  C8         4.2070   33.5640   57.0550 C.ar    0  <0>0        0.0208
      8  C7         3.7400   34.8130   56.6360 C.ar    0  <0>0        0.0029
      9  C6         4.5610   35.9160   56.7160 C.ar    0  <0>0        0.0146
     10  C5         5.8540   35.7880   57.2130 C.ar    0  <0>0        0.0478
     11  C10        6.3240   34.5460   57.6270 C.ar    0  <0>0        0.0146
     12  C9         5.5060   33.4390   57.5540 C.ar    0  <0>0        0.0029
     13  N1         6.6830   36.9070   57.2930 N.pl3   0  <0>0       -0.3075
     14  C2         7.1520   37.3800   58.5980 C.3     0  <0>0        0.0908
     15  C1         8.2560   38.4200   58.3960 C.3     0  <0>0        0.0232
     16  C3         7.0840   37.6090   56.0720 C.3     0  <0>0        0.0908
     17  C4         7.7970   36.6330   55.1330 C.3     0  <0>0        0.0232
     18  C13       -0.6720   30.1080   56.4640 C.3     0  <0>0        0.1788
     19  N4        -0.8040   29.6960   55.0640 N.pl3   0  <0>0       -0.3000
     20  C18       -0.4320   28.4070   54.6630 C.ar    0  <0>0        0.0441
     21  C17       -0.8080   27.9140   53.4220 C.ar    0  <0>0       -0.0088
     22  C19        0.3160   27.6190   55.5290 C.ar    0  <0>0        0.0142
     23  C16       -1.6100   28.7450   52.4550 C.3     0  <0>0        0.0294
     24  C22       -0.4360   26.6320   53.0560 C.ar    0  <0>0       -0.0030
     25  C15       -2.3360   29.8710   53.1890 C.3     0  <0>0        0.0261
     26  C14       -1.3230   30.6300   54.0560 C.3     0  <0>0        0.0916
     27  C21        0.3180   25.8520   53.9170 C.ar    0  <0>0       -0.0002
     28  C20        0.6900   26.3430   55.1550 C.ar    0  <0>0        0.0012
@<TRIPOS>BOND
     1    23    25    1
     2    23    21    1
     3    24    21   ar
     4    24    27   ar
     5    25    26    1
     6    21    20   ar
     7    27    28   ar
     8    26    19    1
     9    20    19    1
    10    20    22   ar
    11    19    18    1
    12    17    16    1
    13    28    22   ar
    14     4     1    1
    15    16    13    1
    16     1     5    1
    17     1     2   am
    18     5     6    2
    19    18     2    1
    20     2     3    2
    21     8     9   ar
    22     8     7   ar
    23     9    10   ar
    24     6     7    1
    25     7    12   ar
    26    10    13    1
    27    10    11   ar
    28    13    14    1
    29    12    11   ar
    30    15    14    1
