@<TRIPOS>MOLECULE
ZINC48884706_replica-1.pdb
 22 22 0 0 0
SMALL
GASTEIGER

@<TRIPOS>ATOM
      1  C4        -0.4270   27.5830   57.5400 C.3     0  <0>0        0.1743
      2  N1        -0.1240   28.9880   57.2620 N.am    0  <0>0       -0.2624
      3  C3         0.7130   29.6700   58.0690 C.2     0  <0>0        0.4020
      4  O2         1.2160   29.1180   59.0280 O.2     0  <0>0       -0.2264
      5  H7        -0.5250   29.4300   56.4960 H       0  <0>0        0.1532
      6  O1         0.9930   30.9620   57.8140 O.3     0  <0>0       -0.4347
      7  C2         0.9580   31.3750   56.4470 C.3     0  <0>0        0.2102
      8  C1         1.8620   32.5950   56.2590 C.3     0  <0>0        0.0513
      9  C5        -1.9440   27.3870   57.5760 C.3     0  <0>0        0.0290
     10  C6        -2.4160   27.3290   59.0310 C.3     0  <0>0        0.0023
     11  C7        -2.6260   28.5570   56.8660 C.3     0  <0>0        0.0023
     12  C8         0.1640   26.7170   56.4580 C.2     0  <0>0        0.3396
     13  O3         0.1250   25.5140   56.5580 O.2     0  <0>0       -0.2479
     14  O4         0.7350   27.2820   55.3810 O.3     0  <0>0       -0.4229
     15  C9         0.0720   27.2130   54.1970 C.ar    0  <0>0        0.1509
     16  C14        0.1100   26.0460   53.4470 C.ar    0  <0>0        0.0695
     17  C13       -0.5700   25.9760   52.2450 C.ar    0  <0>0        0.1704
     18  C12       -1.2800   27.0740   51.7850 C.ar    0  <0>0        0.1676
     19  F1        -0.5370   24.8390   51.5160 F       0  <0>0       -0.2017
     20  C11       -1.3140   28.2400   52.5300 C.ar    0  <0>0        0.0351
     21  F2        -1.9400   27.0070   50.6070 F       0  <0>0       -0.2018
     22  C10       -0.6400   28.3100   53.7340 C.ar    0  <0>0        0.0401
@<TRIPOS>BOND
     1    21    18    1
     2    19    17    1
     3    18    17   ar
     4    18    20   ar
     5    17    16   ar
     6    20    22   ar
     7    16    15   ar
     8    22    15   ar
     9    15    14    1
    10    14    12    1
    11     8     7    1
    12     7     6    1
    13    12    13    2
    14    12     1    1
    15     5     2    1
    16    11     9    1
    17     2     1    1
    18     2     3   am
    19     1     9    1
    20     9    10    1
    21     6     3    1
    22     3     4    2
