@<TRIPOS>MOLECULE
ZINC51689643_replica-1.pdb
 28 29 0 0 0
SMALL
GASTEIGER

@<TRIPOS>ATOM
      1  C6         9.8290   35.1050   60.2880 C.3     0  <0>0        0.0963
      2  C7         9.8580   36.6170   60.5200 C.3     0  <0>0        0.0126
      3  C8         8.9950   37.3140   59.4660 C.3     0  <0>0        0.0221
      4  C9         7.5470   36.8310   59.5990 C.3     0  <0>0        0.0950
      5  N2         7.5280   35.3640   59.5220 N.am    0  <0>0       -0.2637
      6  C10        8.3910   34.5970   60.4300 C.3     0  <0>0        0.1040
      7  C11        6.7330   34.7330   58.6350 C.2     0  <0>0        0.3042
      8  O2         6.7960   33.5240   58.5140 O.2     0  <0>0       -0.2526
      9  N3         5.8690   35.4410   57.8810 N.am    0  <0>0       -0.2861
     10  H21        5.8630   36.4090   57.9310 H       0  <0>0        0.1512
     11  C5        10.7060   34.4240   61.3070 C.2     0  <0>0        0.2237
     12  N1        11.6520   35.1280   61.9600 N.am    0  <0>0       -0.3043
     13  H12       11.7670   36.0720   61.7750 H       0  <0>0        0.1494
     14  O1        10.5610   33.2420   61.5390 O.2     0  <0>0       -0.2751
     15  C4        12.5050   34.4660   62.9510 C.3     0  <0>0        0.0894
     16  C3        13.8370   34.0840   62.3020 C.3     0  <0>0        0.0212
     17  C2        14.4470   32.8970   63.0520 C.3     0  <0>0        0.0017
     18  C1        13.3910   31.8030   63.2200 C.3     0  <0>0        0.0001
     19  C12        4.9380   34.7470   56.9860 C.3     0  <0>0        0.1013
     20  C13        3.5350   34.8870   57.5160 C.ar    0  <0>0        0.0251
     21  S1         2.0750   33.9510   57.0920 S.2     0  <0>0       -0.0892
     22  C16        0.9220   34.7800   58.1740 C.ar    0  <0>0        0.0352
     23  C15        1.7120   35.7050   58.7700 C.ar    0  <0>0        0.0072
     24  C14        3.0520   35.7590   58.4340 C.ar    0  <0>0        0.0043
     25  C17        5.0200   35.3650   55.5880 C.3     0  <0>0        0.0210
     26  C18        4.6490   34.3100   54.5430 C.3     0  <0>0        0.0020
     27  C19        4.0470   36.5420   55.4920 C.3     0  <0>0        0.0020
     28  C20        6.4450   35.8580   55.3300 C.3     0  <0>0        0.0020
@<TRIPOS>BOND
     1    26    25    1
     2    28    25    1
     3    27    25    1
     4    25    19    1
     5    19    20    1
     6    19     9    1
     7    21    20   ar
     8    21    22   ar
     9    20    24   ar
    10     9    10    1
    11     9     7   am
    12    22    23   ar
    13    24    23   ar
    14     8     7    2
    15     7     5   am
    16     3     4    1
    17     3     2    1
    18     5     4    1
    19     5     6    1
    20     1     6    1
    21     1     2    1
    22     1    11    1
    23    11    14    2
    24    11    12   am
    25    13    12    1
    26    12    15    1
    27    16    15    1
    28    16    17    1
    29    17    18    1
