@<TRIPOS>MOLECULE
ZINC08752876_replica-1.pdb
 25 28 0 0 0
SMALL
GASTEIGER

@<TRIPOS>ATOM
      1  C7        -0.3060   30.6320   56.3230 C.2     0  <0>0        0.1859
      2  N1        -1.1650   31.0810   55.3590 N.am    0  <0>0       -0.2589
      3  H1        -1.5710   31.9570   55.4540 H       0  <0>0        0.1573
      4  C8        -1.4620   30.3280   54.2840 C.2     0  <0>0        0.2385
      5  O1        -2.2340   30.7400   53.4350 O.2     0  <0>0       -0.2739
      6  C9        -0.8540   29.0380   54.1480 C.3     0  <0>0        0.1537
      7  C10       -1.0260   28.0640   53.0720 C.2     0  <0>0       -0.0268
      8  C11       -0.3410   26.9060   53.1770 C.2     0  <0>0        0.0023
      9  S1         0.5620   27.0430   54.6960 S.3     0  <0>0       -0.0639
     10  C12        0.0150   28.6590   55.1870 C.2     0  <0>0        0.1518
     11  N2         0.2620   29.4480   56.2240 N.2     0  <0>0       -0.3839
     12  C13       -0.3460   25.7570   52.2150 C.3     0  <0>0        0.0324
     13  C14       -1.5380   25.9290   51.2630 C.3     0  <0>0        0.0055
     14  C15       -1.5500   27.3700   50.7440 C.3     0  <0>0        0.0047
     15  C16       -1.9360   28.3260   51.8740 C.3     0  <0>0        0.0231
     16  C6        -0.0110   31.4860   57.4910 C.ar    0  <0>0        0.0443
     17  C1        -0.0820   32.8770   57.3780 C.ar    0  <0>0        0.0070
     18  C2         0.1890   33.6690   58.4720 C.ar    0  <0>0        0.0372
     19  C3         0.5450   33.0870   59.6820 C.ar    0  <0>0        0.1443
     20  C4         0.6230   31.7050   59.7970 C.ar    0  <0>0        0.0372
     21  C5         0.3470   30.9040   58.7100 C.ar    0  <0>0        0.0070
     22  O2         0.8170   33.8720   60.7550 O.3     0  <0>0       -0.4236
     23  C17       -0.1290   33.8570   61.8270 C.3     0  <0>0        0.5087
     24  F1         0.4710   33.3150   62.9700 F       0  <0>0       -0.1550
     25  F2        -0.5490   35.1640   62.0970 F       0  <0>0       -0.1550
@<TRIPOS>BOND
     1    14    13    1
     2    14    15    1
     3    13    12    1
     4    15     7    1
     5    12     8    1
     6     7     8    2
     7     7     6    1
     8     8     9    1
     9     5     4    2
    10     6     4    1
    11     6    10    1
    12     4     2   am
    13     9    10    1
    14    10    11    2
    15     2     3    1
    16     2     1    1
    17    11     1    2
    18     1    16    1
    19    17    16   ar
    20    17    18   ar
    21    16    21   ar
    22    18    19   ar
    23    21    20   ar
    24    19    20   ar
    25    19    22    1
    26    22    23    1
    27    23    25    1
    28    23    24    1
