@<TRIPOS>MOLECULE
ZINC04038681_replica-1.pdb
 17 19 0 0 0
SMALL
GASTEIGER

@<TRIPOS>ATOM
      1  C1        11.2100   36.6600   62.7900 C.3     0  <0>0        0.1199
      2  N1        10.7990   35.9830   61.5570 N.pl3   0  <0>0       -0.2565
      3  C2        10.0030   36.5100   60.5570 C.2     0  <0>0        0.0795
      4  C3         9.3740   37.7330   60.3750 C.2     0  <0>0       -0.0034
      5  C4         8.6300   37.9600   59.2360 C.3     0  <0>0        0.0606
      6  C5         8.5030   36.9710   58.2690 C.2     0  <0>0        0.0194
      7  C6         9.1200   35.7510   58.4320 C.2     0  <0>0        0.0361
      8  C7         9.8800   35.5050   59.5810 C.2     0  <0>0        0.1466
      9  N2        10.5870   34.4340   60.0160 N.2     0  <0>0       -0.3822
     10  C8        11.1360   34.7090   61.1770 C.2     0  <0>0        0.2219
     11 Br          7.4770   37.3040   56.7160 Br      0  <0>0       -0.0532
     12  C9        11.9810   33.7900   61.9530 C.ar    0  <0>0        0.1900
     13  O1        11.5910   32.6120   62.4810 O.2     0  <0>0       -0.4430
     14  C12       12.6270   32.0450   63.1190 C.ar    0  <0>0        0.1792
     15  C11       13.6980   32.8620   63.0160 C.ar    0  <0>0        0.0478
     16 Br         12.5910   30.3830   64.0190 Br      0  <0>0       -0.0078
     17  C10       13.2930   33.9830   62.2690 C.ar    0  <0>0        0.0452
@<TRIPOS>BOND
     1    11     6    1
     2     6     7    2
     3     6     5    1
     4     7     8    1
     5     5     4    1
     6     8     9    2
     7     8     3    1
     8     9    10    2
     9     4     3    2
    10     3     2    1
    11    10     2    1
    12    10    12    1
    13     2     1    1
    14    12    17   ar
    15    12    13   ar
    16    17    15   ar
    17    13    14   ar
    18    15    14   ar
    19    14    16    1
