@<TRIPOS>MOLECULE
ZINC39713084_replica-1.pdb
 28 31 0 0 0
SMALL
GASTEIGER

@<TRIPOS>ATOM
      1  C8         8.0860   34.9570   60.2250 C.2     0  <0>0        0.2741
      2  O1         8.5620   36.0580   60.4220 O.2     0  <0>0       -0.2677
      3  N1         8.8360   33.8540   60.4130 N.am    0  <0>0       -0.1209
      4  C9         8.3430   32.6110   60.0500 C.2     0  <0>0        0.2400
      5  S1         8.3530   31.8280   58.4430 S.3     0  <0>0       -0.0358
      6  C15        7.5430   30.3210   58.9250 C.2     0  <0>0        0.0588
      7  C10        7.3110   30.5320   60.3030 C.2     0  <0>0        0.1391
      8  C14        7.1630   29.1720   58.2760 C.2     0  <0>0       -0.0123
      9  N2         7.7440   31.7120   60.7950 N.2     0  <0>0       -0.3780
     10  C11        6.6560   29.4850   60.9940 C.2     0  <0>0        0.0284
     11  C12        6.2800   28.3420   60.3380 C.2     0  <0>0       -0.0188
     12  C13        6.5260   28.1690   58.9820 C.3     0  <0>0        0.0527
     13  N3        10.1140   33.9630   60.9770 N.2     0  <0>0       -0.1671
     14  C16       10.5830   33.0020   61.7130 C.2     0  <0>0        0.1183
     15  C17       11.8530   33.1830   62.4400 C.ar    0  <0>0        0.0207
     16  C22       12.3240   34.4670   62.7200 C.ar    0  <0>0        0.0021
     17  C21       13.5100   34.6290   63.4050 C.ar    0  <0>0        0.0067
     18  C20       14.2400   33.5220   63.8040 C.ar    0  <0>0        0.0346
     19  C19       13.7820   32.2450   63.5230 C.ar    0  <0>0        0.0067
     20 Br         15.8680   33.7530   64.7360 Br      0  <0>0       -0.0490
     21  C18       12.5950   32.0700   62.8440 C.ar    0  <0>0        0.0021
     22  C6         6.6830   34.8290   59.7800 C.ar    0  <0>0        0.0553
     23  C5         5.6920   34.4470   60.6860 C.ar    0  <0>0        0.0046
     24  C4         4.3840   34.3300   60.2630 C.ar    0  <0>0       -0.0002
     25  C3         4.0530   34.5920   58.9460 C.ar    0  <0>0       -0.0043
     26  C2         5.0300   34.9710   58.0430 C.ar    0  <0>0       -0.0217
     27  C1         4.6600   35.2540   56.6100 C.3     0  <0>0        0.0310
     28  C7         6.3420   35.0860   58.4500 C.ar    0  <0>0        0.0003
@<TRIPOS>BOND
     1    27    26    1
     2    26    28   ar
     3    26    25   ar
     4     8     6    2
     5     8    12    1
     6     5     6    1
     7     5     4    1
     8    28    22   ar
     9     6     7    1
    10    25    24   ar
    11    12    11    1
    12    22     1    1
    13    22    23   ar
    14     4     3    1
    15     4     9    2
    16     1     3   am
    17     1     2    2
    18    24    23   ar
    19     7     9    2
    20     7    10    1
    21    11    10    2
    22     3    13    1
    23    13    14    2
    24    14    15    1
    25    15    16   ar
    26    15    21   ar
    27    16    17   ar
    28    21    19   ar
    29    17    18   ar
    30    19    18   ar
    31    18    20    1
