@<TRIPOS>MOLECULE
ZINC18055888_replica-1.pdb
 20 22 0 0 0
SMALL
GASTEIGER

@<TRIPOS>ATOM
      1  C5        -0.0610   31.4750   58.3570 C.2     0  <0>0        0.0258
      2  C6        -0.3060   31.2180   57.0400 C.2     0  <0>0        0.1281
      3  C7         0.4790   31.5840   55.8430 C.1     0  <0>0        0.2127
      4  O1         1.5230   32.2140   55.9250 O.2     0  <0>0       -0.2087
      5  N1        -0.0070   31.1960   54.6840 N.2     0  <0>0       -0.3082
      6  C8        -1.1360   30.5130   54.5810 C.2     0  <0>0        0.2482
      7  S2        -1.6620   30.3360   56.2780 S.3     0  <0>0       -0.0246
      8  N2        -1.7510   30.0500   53.4450 N.pl3   0  <0>0       -0.1771
      9  C9        -1.4300   28.7840   52.9430 C.ar    0  <0>0        0.0737
     10  C14       -0.6230   27.9290   53.6820 C.ar    0  <0>0        0.0175
     11  C13       -0.3120   26.6770   53.1870 C.ar    0  <0>0        0.0127
     12  C12       -0.7920   26.2800   51.9520 C.ar    0  <0>0        0.0578
     13  C11       -1.5900   27.1350   51.2100 C.ar    0  <0>0        0.0127
     14 Cl         -0.3920   24.7100   51.3300 Cl      0  <0>0       -0.0822
     15  C10       -1.9100   28.3850   51.7030 C.ar    0  <0>0        0.0175
     16  C3         0.9970   32.3390   58.7240 C.ar    0  <0>0        0.0307
     17  C2         0.9890   33.7220   58.8710 C.ar    0  <0>0        0.0070
     18  C1         2.1840   34.2880   59.2420 C.ar    0  <0>0        0.0075
     19  C4         3.2610   33.4870   59.4350 C.ar    0  <0>0        0.0354
     20  S1         2.6880   31.9400   59.1200 S.2     0  <0>0       -0.0864
@<TRIPOS>BOND
     1    13    15   ar
     2    13    12   ar
     3    14    12    1
     4    15     9   ar
     5    12    11   ar
     6     9     8    1
     7     9    10   ar
     8    11    10   ar
     9     8     6    1
    10     6     5    2
    11     6     7    1
    12     5     3    2
    13     3     4    2
    14     3     2    1
    15     7     2    1
    16     2     1    2
    17     1    16    1
    18    16    17   ar
    19    16    20   ar
    20    17    18   ar
    21    20    19   ar
    22    18    19   ar
