@<TRIPOS>MOLECULE
ZINC10156564_replica-1.pdb
 25 28 0 0 0
SMALL
GASTEIGER

@<TRIPOS>ATOM
      1  C1         7.2570   38.3340   59.3050 C.3     0  <0>0        0.0634
      2  C2         7.2560   36.8350   59.4670 C.2     0  <0>0        0.1136
      3  C3         8.3240   36.1840   60.0990 C.3     0  <0>0        0.1551
      4  C4         8.2860   34.7910   60.2320 C.2     0  <0>0        0.1136
      5  N1         7.2410   34.1400   59.7520 N.2     0  <0>0       -0.3361
      6  C5         6.2490   34.7890   59.1560 C.1     0  <0>0        0.2022
      7  N2         6.2520   36.1090   59.0100 N.2     0  <0>0       -0.3361
      8  N3         5.1790   34.0680   58.6690 N.pl3   0  <0>0       -0.2378
      9  C12        9.3950   34.0350   60.9080 C.3     0  <0>0        0.0616
     10  C13       10.6950   34.8350   60.8940 C.3     0  <0>0        0.0425
     11  C14       10.4510   36.2200   61.5080 C.3     0  <0>0        0.0706
     12  C15        9.4690   36.9480   60.6120 C.2     0  <0>0        0.1633
     13  O1         9.6220   38.1170   60.3300 O.2     0  <0>0       -0.2952
     14  H5         5.1970   33.0990   58.6910 H       0  <0>0        0.1657
     15  C6         4.0680   34.7360   58.1430 C.ar    0  <0>0        0.0584
     16  C11        2.9930   35.0510   58.9640 C.ar    0  <0>0        0.0153
     17  C10        1.8980   35.7100   58.4420 C.ar    0  <0>0        0.0013
     18  C9         1.8710   36.0560   57.1020 C.ar    0  <0>0        0.0001
     19  C8         2.9420   35.7480   56.2840 C.ar    0  <0>0        0.0013
     20  C7         4.0380   35.0840   56.7990 C.ar    0  <0>0        0.0153
     21  C16       11.7410   34.1060   61.6970 C.ar    0  <0>0        0.0078
     22  S1        11.5710   32.6290   62.6850 S.2     0  <0>0       -0.0908
     23  C19       13.2630   32.5050   63.2440 C.ar    0  <0>0        0.0351
     24  C18       13.8340   33.5810   62.6500 C.ar    0  <0>0        0.0072
     25  C17       13.0550   34.3990   61.8530 C.ar    0  <0>0        0.0027
@<TRIPOS>BOND
     1    19    20   ar
     2    19    18   ar
     3    20    15   ar
     4    18    17   ar
     5    15     8    1
     6    15    16   ar
     7    17    16   ar
     8     8    14    1
     9     8     6    1
    10     7     6    2
    11     7     2    2
    12     6     5    2
    13     1     2    1
    14     2     3    1
    15     5     4    2
    16     3     4    1
    17     3    12    1
    18     4     9    1
    19    13    12    2
    20    12    11    1
    21    10     9    1
    22    10    11    1
    23    10    21    1
    24    21    25   ar
    25    21    22   ar
    26    25    24   ar
    27    24    23   ar
    28    22    23   ar
