@<TRIPOS>MOLECULE
ZINC66154341_replica-1.pdb
 21 22 0 0 0
SMALL
GASTEIGER

@<TRIPOS>ATOM
      1  C10       -1.1330   30.8670   56.5830 C.3     0  <0>0        0.2265
      2  O1        -0.3670   29.6620   56.5260 O.3     0  <0>0       -0.4736
      3  C7        -0.4290   28.9460   55.3730 C.ar    0  <0>0        0.1386
      4  C6        -1.1820   29.4130   54.3050 C.ar    0  <0>0        0.0366
      5  C5        -1.2430   28.6840   53.1330 C.ar    0  <0>0       -0.0012
      6  C4        -0.5530   27.4910   53.0230 C.ar    0  <0>0       -0.0223
      7  C9         0.1940   27.0210   54.0870 C.ar    0  <0>0       -0.0012
      8  C8         0.2630   27.7480   55.2590 C.ar    0  <0>0        0.0366
      9  C2        -0.6210   26.6990   51.7430 C.3     0  <0>0        0.0224
     10  C1        -0.6770   25.2050   52.0700 C.3     0  <0>0        0.0047
     11  C3        -1.8750   27.0970   50.9610 C.3     0  <0>0        0.0047
     12  C11       -0.2020   32.0710   56.4230 C.3     0  <0>0        0.1351
     13  N1        -0.4890   33.0520   57.4730 N.pl3   0  <0>0       -0.3290
     14  H16       -1.3170   32.9960   57.9760 H       0  <0>0        0.1469
     15  C12        0.4290   34.0690   57.7490 C.ar    0  <0>0        0.0554
     16  C17        0.8480   34.2930   59.0550 C.ar    0  <0>0        0.0707
     17  C16        1.7600   35.2970   59.3220 C.ar    0  <0>0        0.0126
     18 Cl          0.2310   33.3110   60.3470 Cl      0  <0>0       -0.0810
     19  C15        2.2480   36.0830   58.2940 C.ar    0  <0>0        0.0009
     20  C14        1.8280   35.8650   56.9950 C.ar    0  <0>0        0.0013
     21  C13        0.9200   34.8600   56.7190 C.ar    0  <0>0        0.0152
@<TRIPOS>BOND
     1    11     9    1
     2     9    10    1
     3     9     6    1
     4     6     5   ar
     5     6     7   ar
     6     5     4   ar
     7     7     8   ar
     8     4     3   ar
     9     8     3   ar
    10     3     2    1
    11    12     1    1
    12    12    13    1
    13     2     1    1
    14    21    20   ar
    15    21    15   ar
    16    20    19   ar
    17    13    15    1
    18    13    14    1
    19    15    16   ar
    20    19    17   ar
    21    16    17   ar
    22    16    18    1
