@<TRIPOS>MOLECULE
ZINC66908257_replica-1.pdb
 27 28 0 0 0
SMALL
GASTEIGER

@<TRIPOS>ATOM
      1  N1         1.2020   32.8030   56.0150 N.am    0  <0>0       -0.2904
      2  C8         1.2710   33.9050   56.7890 C.2     0  <0>0        0.3039
      3  O1         0.4170   34.1110   57.6290 O.2     0  <0>0       -0.2526
      4  N2         2.2880   34.7750   56.6320 N.am    0  <0>0       -0.2641
      5  C9         2.4420   35.9170   57.5440 C.3     0  <0>0        0.0966
      6  C10        3.8610   35.8990   58.1200 C.3     0  <0>0        0.0412
      7  C11        4.8740   35.8690   56.9730 C.3     0  <0>0        0.0750
      8  C12        4.6720   34.5980   56.1460 C.3     0  <0>0        0.0412
      9  C13        3.2660   34.5980   55.5500 C.3     0  <0>0        0.0966
     10  H16        1.8410   32.6750   55.2960 H       0  <0>0        0.1509
     11  C6         0.1610   31.8010   56.2580 C.3     0  <0>0        0.0731
     12  C7         0.7590   30.6240   57.0310 C.3     0  <0>0        0.0213
     13  C5        -0.3910   31.3050   54.9200 C.3     0  <0>0        0.0196
     14  C4         0.0130   29.8440   54.7110 C.3     0  <0>0        0.0017
     15  C3        -0.8790   29.2170   53.6390 C.3     0  <0>0        0.0001
     16  C2        -0.5570   27.7260   53.5160 C.3     0  <0>0        0.0000
     17  C1        -0.9850   27.2240   52.1350 C.3     0  <0>0        0.0000
     18  N3         6.2330   35.8850   57.5210 N.am    0  <0>0       -0.3058
     19  C14        7.1550   36.7270   57.0120 C.2     0  <0>0        0.2224
     20  O2         6.8580   37.4710   56.1010 O.2     0  <0>0       -0.2751
     21  H26        6.4700   35.2900   58.2490 H       0  <0>0        0.1494
     22  C15        8.5520   36.7440   57.5750 C.3     0  <0>0        0.0850
     23  C16        8.5080   36.3760   59.0600 C.3     0  <0>0        0.0091
     24  C20        9.3720   35.1300   59.3200 C.3     0  <0>0        0.0005
     25  C19       10.4720   35.5570   60.3140 C.3     0  <0>0        0.0000
     26  C18        9.8730   36.7870   61.0390 C.3     0  <0>0        0.0000
     27  C17        9.1140   37.5170   59.9040 C.3     0  <0>0        0.0005
@<TRIPOS>BOND
     1    17    16    1
     2    16    15    1
     3    15    14    1
     4    14    13    1
     5    13    11    1
     6    10     1    1
     7     9     8    1
     8     9     4    1
     9     1    11    1
    10     1     2   am
    11    20    19    2
    12     8     7    1
    13    11    12    1
    14     4     2   am
    15     4     5    1
    16     2     3    2
    17     7    18    1
    18     7     6    1
    19    19    18   am
    20    19    22    1
    21    18    21    1
    22     5     6    1
    23    22    23    1
    24    23    24    1
    25    23    27    1
    26    24    25    1
    27    27    26    1
    28    25    26    1
