@<TRIPOS>MOLECULE
ZINC20552727_replica-1.pdb
 19 20 0 0 0
SMALL
GASTEIGER

@<TRIPOS>ATOM
      1  C8         0.7760   31.0740   56.1790 C.ar    0  <0>0        0.0478
      2  C9         0.2940   30.6400   57.4070 C.ar    0  <0>0        0.0176
      3  C10        0.1670   31.5320   58.4540 C.ar    0  <0>0        0.0413
      4  C11        0.5200   32.8620   58.2820 C.ar    0  <0>0        0.1725
      5  C12        1.0040   33.2990   57.0560 C.ar    0  <0>0        0.1736
      6  C13        1.1350   32.4030   56.0050 C.ar    0  <0>0        0.0543
      7  O1         1.3620   34.5990   56.8700 O.3     0  <0>0       -0.4683
      8  C14        0.8740   35.5440   57.8290 C.3     0  <0>0        0.2526
      9  C15        1.0970   34.9650   59.2330 C.3     0  <0>0        0.2526
     10  O2         0.3830   33.7280   59.3260 O.3     0  <0>0       -0.4684
     11  N1         0.9040   30.1690   55.1190 N.pl3   0  <0>0       -0.3340
     12  H16        1.7400   30.1110   54.6290 H       0  <0>0        0.1468
     13  C2        -0.2230   29.3120   54.7470 C.3     0  <0>0        0.0691
     14  C1        -1.2400   30.1250   53.9420 C.3     0  <0>0        0.0212
     15  C3         0.2830   28.1440   53.8970 C.3     0  <0>0        0.0195
     16  C4        -0.9100   27.3560   53.3500 C.3     0  <0>0        0.0017
     17  C5        -0.6120   26.9080   51.9180 C.3     0  <0>0        0.0001
     18  C6        -0.5640   25.3790   51.8620 C.3     0  <0>0        0.0000
     19  C7        -1.7110   27.4180   50.9850 C.3     0  <0>0        0.0000
@<TRIPOS>BOND
     1    19    17    1
     2    18    17    1
     3    17    16    1
     4    16    15    1
     5    15    13    1
     6    14    13    1
     7    12    11    1
     8    13    11    1
     9    11     1    1
    10     6     1   ar
    11     6     5   ar
    12     1     2   ar
    13     7     5    1
    14     7     8    1
    15     5     4   ar
    16     2     3   ar
    17     8     9    1
    18     4     3   ar
    19     4    10    1
    20     9    10    1
