@<TRIPOS>MOLECULE
ZINC41506838_replica-1.pdb
 29 32 0 0 0
SMALL
GASTEIGER

@<TRIPOS>ATOM
      1  C1        -1.5770   27.8840   59.5450 C.3     0  <0>0        0.0313
      2  C2        -1.2570   28.8470   58.4310 C.ar    0  <0>0       -0.0127
      3  C3        -1.7030   28.6000   57.1640 C.ar    0  <0>0        0.0330
      4  C4        -1.4080   29.4890   56.1330 C.ar    0  <0>0        0.1418
      5  C5        -0.6630   30.6310   56.3790 C.ar    0  <0>0        0.0744
      6  C6        -0.2020   30.8970   57.6620 C.ar    0  <0>0        0.1513
      7  C7        -0.5090   29.9960   58.6940 C.ar    0  <0>0        0.0728
      8  C8         0.1010   30.5440   59.9190 C.2     0  <0>0        0.2324
      9  O1         0.0760   30.0690   61.0410 O.2     0  <0>0       -0.2832
     10  C9         0.7460   31.7920   59.4830 C.2     0  <0>0        0.1840
     11  C10        1.4420   32.6520   60.2690 C.2     0  <0>0        0.0413
     12  O2         0.5300   31.9210   58.1530 O.3     0  <0>0       -0.4501
     13  O3        -1.8560   29.2340   54.8770 O.3     0  <0>0       -0.4704
     14  C17       -0.9030   29.3350   53.8170 C.3     0  <0>0        0.2350
     15  C18       -0.9240   28.0670   53.0010 C.ar    0  <0>0        0.0551
     16  C23       -0.1600   26.9780   53.3910 C.ar    0  <0>0        0.1382
     17  C22       -0.1850   25.8110   52.6420 C.ar    0  <0>0        0.0367
     18  C21       -0.9630   25.7410   51.5010 C.ar    0  <0>0        0.0031
     19  C20       -1.7190   26.8300   51.1110 C.ar    0  <0>0       -0.0000
     20  C19       -1.7000   27.9920   51.8600 C.ar    0  <0>0        0.0023
     21  O4         0.6090   27.0510   54.5100 O.3     0  <0>0       -0.4716
     22  C24        0.3500   26.0940   55.5390 C.3     0  <0>0        0.2525
     23  C11        2.1360   33.7990   59.6690 C.ar    0  <0>0        0.0094
     24  C16        3.5270   33.7740   59.5050 C.ar    0  <0>0        0.0347
     25  C15        4.1690   34.8530   58.9330 C.ar    0  <0>0        0.0067
     26 Br          4.5190   32.2620   60.0580 Br      0  <0>0       -0.0490
     27  C14        3.4450   35.9620   58.5350 C.ar    0  <0>0        0.0005
     28  C13        2.0700   35.9970   58.6990 C.ar    0  <0>0        0.0000
     29  C12        1.4120   34.9260   59.2620 C.ar    0  <0>0        0.0006
@<TRIPOS>BOND
     1    19    18   ar
     2    19    20   ar
     3    18    17   ar
     4    20    15   ar
     5    17    16   ar
     6    15    16   ar
     7    15    14    1
     8    16    21    1
     9    14    13    1
    10    21    22    1
    11    13     4    1
    12     4     5   ar
    13     4     3   ar
    14     5     6   ar
    15     3     2   ar
    16     6    12    1
    17     6     7   ar
    18    12    10    1
    19     2     7   ar
    20     2     1    1
    21    27    28   ar
    22    27    25   ar
    23     7     8    1
    24    28    29   ar
    25    25    24   ar
    26    29    23   ar
    27    10     8    1
    28    10    11    2
    29    24    23   ar
    30    24    26    1
    31    23    11    1
    32     8     9    2
