@<TRIPOS>MOLECULE
ZINC41750505_replica-1.pdb
 21 21 0 0 0
SMALL
GASTEIGER

@<TRIPOS>ATOM
      1  C6         7.7700   36.9160   58.3670 C.3     0  <0>0        0.0703
      2  N1         7.6860   35.9610   57.2520 N.4     0  <0>0        0.3967
      3  H12        7.3450   35.0760   57.5940 H       0  <0>0       -0.0830
      4  H22        8.6020   35.8370   56.8470 H       0  <0>0       -0.0830
      5  C4         6.7660   36.4800   56.2320 C.3     0  <0>0       -0.0606
      6  C5         7.4870   36.5520   54.8840 C.3     0  <0>0       -0.0234
      7  C3         5.5570   35.5500   56.1150 C.3     0  <0>0       -0.0213
      8  C2         4.3140   36.3700   55.7650 C.3     0  <0>0       -0.0021
      9  C1         3.1770   36.0080   56.7230 C.3     0  <0>0       -0.0001
     10  C7         6.4180   36.9880   59.0790 C.3     0  <0>0       -0.0049
     11  C8         6.0900   35.6240   59.6920 C.3     0  <0>0       -0.0013
     12  C9         8.8260   36.4600   59.3400 C.ar    0  <0>0       -0.0304
     13  C14        9.5220   35.2890   59.1050 C.ar    0  <0>0       -0.0052
     14  C13       10.4950   34.8730   59.9950 C.ar    0  <0>0        0.0063
     15  C12       10.7650   35.6230   61.1240 C.ar    0  <0>0        0.0345
     16  C11       10.0660   36.7920   61.3610 C.ar    0  <0>0        0.0063
     17 Br         12.0920   35.0510   62.3450 Br      0  <0>0       -0.0490
     18  C10        9.0970   37.2100   60.4700 C.ar    0  <0>0       -0.0052
     19  C15        8.1320   38.2780   57.8350 C.2     0  <0>0        0.3503
     20  O1         7.4530   39.2470   58.1270 O.co2   0  <0>0       -0.2476
     21  O2         9.1060   38.4110   57.1130 O.co2   0  <0>0       -0.2476
@<TRIPOS>BOND
     1     6     5    1
     2     8     7    1
     3     8     9    1
     4     7     5    1
     5     5     2    1
     6     4     2    1
     7    21    19   ar
     8     2     3    1
     9     2     1    1
    10    19    20   ar
    11    19     1    1
    12     1    10    1
    13     1    12    1
    14    10    11    1
    15    13    12   ar
    16    13    14   ar
    17    12    18   ar
    18    14    15   ar
    19    18    16   ar
    20    15    16   ar
    21    15    17    1
