@<TRIPOS>MOLECULE
ZINC37060108_replica-1.pdb
 21 22 0 0 0
SMALL
GASTEIGER

@<TRIPOS>ATOM
      1  N1        10.6810   34.6120   60.1110 N.pl3   0  <0>0       -0.3284
      2  H6        11.5280   34.4120   59.6820 H       0  <0>0        0.1471
      3  C7        10.2370   33.8200   61.2600 C.3     0  <0>0        0.1143
      4  C6        11.4380   33.3140   62.0160 C.ar    0  <0>0       -0.0020
      5  C1        12.6000   34.0610   62.0470 C.ar    0  <0>0       -0.0003
      6  C2        13.7030   33.5980   62.7400 C.ar    0  <0>0        0.0299
      7  C3        13.6430   32.3840   63.4040 C.ar    0  <0>0        0.1462
      8  C4        12.4780   31.6360   63.3730 C.ar    0  <0>0        0.0617
      9  F1        14.7210   31.9310   64.0810 F       0  <0>0       -0.2037
     10  C5        11.3770   32.1020   62.6790 C.ar    0  <0>0        0.0063
     11 Br         12.3940   29.9780   64.2790 Br      0  <0>0       -0.0467
     12  C8         9.8850   35.6560   59.6330 C.ar    0  <0>0        0.0572
     13  C13        9.7180   36.8090   60.3910 C.ar    0  <0>0        0.0708
     14  C12        8.9340   37.8410   59.9120 C.ar    0  <0>0        0.0143
     15 Cl         10.4970   36.9540   61.9360 Cl      0  <0>0       -0.0810
     16  C11        8.3080   37.7240   58.6850 C.ar    0  <0>0        0.0250
     17  C10        8.4690   36.5760   57.9300 C.ar    0  <0>0        0.1442
     18  C9         9.2550   35.5430   58.4010 C.ar    0  <0>0        0.0392
     19  N2         7.7970   36.4550   56.6170 N.pl3   0  <0>0        0.0577
     20  O1         8.4390   36.1640   55.6350 O.2     0  <0>0       -0.1261
     21  O2         6.6070   36.6460   56.5280 O.2     0  <0>0       -0.1261
@<TRIPOS>BOND
     1    20    19    2
     2    21    19    2
     3    19    17    1
     4    17    18   ar
     5    17    16   ar
     6    18    12   ar
     7    16    14   ar
     8    12     1    1
     9    12    13   ar
    10     2     1    1
    11    14    13   ar
    12     1     3    1
    13    13    15    1
    14     3     4    1
    15     4     5   ar
    16     4    10   ar
    17     5     6   ar
    18    10     8   ar
    19     6     7   ar
    20     8     7   ar
    21     8    11    1
    22     7     9    1
