@<TRIPOS>MOLECULE
ZINC19847899_replica-1.pdb
 29 32 0 0 0
SMALL
GASTEIGER

@<TRIPOS>ATOM
      1  C1         5.2930   32.0560   59.2010 C.3     0  <0>0        0.0470
      2  C2         6.3490   33.1310   59.2480 C.2     0  <0>0        0.0283
      3  C3         5.9940   34.4210   59.1210 C.2     0  <0>0        0.0711
      4  C4         7.0180   35.5170   59.1570 C.3     0  <0>0        0.0837
      5  C5         8.3110   35.0300   59.7630 C.2     0  <0>0        0.0304
      6  C6         8.5730   33.7090   59.8560 C.2     0  <0>0        0.0248
      7  N1         7.6600   32.7860   59.4200 N.pl3   0  <0>0       -0.3193
      8  C7         9.8720   33.2150   60.4430 C.3     0  <0>0        0.0462
      9  C8        10.3660   34.2030   61.5040 C.3     0  <0>0        0.0417
     10  C9        10.5390   35.5760   60.8460 C.3     0  <0>0        0.0741
     11  C10        9.2320   35.9870   60.2210 C.2     0  <0>0        0.1710
     12  O1         8.9700   37.1690   60.1120 O.2     0  <0>0       -0.2916
     13  H6         7.9930   31.7600   59.2080 H       0  <0>0        0.1516
     14  C19        4.6290   34.7520   58.9510 C.2     0  <0>0        0.3386
     15  O2         3.9580   35.0730   59.9140 O.2     0  <0>0       -0.2452
     16  O3         4.0720   34.7110   57.7240 O.3     0  <0>0       -0.4494
     17  C20        3.5510   35.9360   57.2060 C.3     0  <0>0        0.1694
     18  C21        4.0020   36.1110   55.7540 C.3     0  <0>0        0.0473
     19  C22        2.0220   35.9060   57.2650 C.3     0  <0>0        0.0473
     20  C15        7.2790   35.9950   57.7530 C.ar    0  <0>0        0.0155
     21  S2         7.7720   35.0550   56.3180 S.2     0  <0>0       -0.0901
     22  C18        7.8390   36.4000   55.1460 C.ar    0  <0>0        0.0351
     23  C17        7.4930   37.4600   55.9150 C.ar    0  <0>0        0.0072
     24  C16        7.2070   37.2530   57.2520 C.ar    0  <0>0        0.0033
     25  C11       11.6880   33.7350   62.0540 C.ar    0  <0>0        0.0078
     26  S1        12.0640   32.2500   62.9700 S.2     0  <0>0       -0.0908
     27  C14       13.8140   32.5240   63.1890 C.ar    0  <0>0        0.0351
     28  C13       13.9910   33.7140   62.5650 C.ar    0  <0>0        0.0072
     29  C12       12.9030   34.3340   61.9810 C.ar    0  <0>0        0.0027
@<TRIPOS>BOND
     1    22    23   ar
     2    22    21   ar
     3    18    17    1
     4    23    24   ar
     5    21    20   ar
     6    17    19    1
     7    17    16    1
     8    24    20   ar
     9    16    14    1
    10    20     4    1
    11    14     3    1
    12    14    15    2
    13     3     4    1
    14     3     2    2
    15     4     5    1
    16     1     2    1
    17    13     7    1
    18     2     7    1
    19     7     6    1
    20     5     6    2
    21     5    11    1
    22     6     8    1
    23    12    11    2
    24    11    10    1
    25     8     9    1
    26    10     9    1
    27     9    25    1
    28    29    25   ar
    29    29    28   ar
    30    25    26   ar
    31    28    27   ar
    32    26    27   ar
