@<TRIPOS>MOLECULE
ZINC64685959_replica-1.pdb
 26 27 0 0 0
SMALL
GASTEIGER

@<TRIPOS>ATOM
      1  C3         4.3590   34.0830   56.1890 C.3     0  <0>0        0.1783
      2  N1         3.3750   33.1250   55.6760 N.am    0  <0>0       -0.2621
      3  C2         2.2090   32.9470   56.3260 C.2     0  <0>0        0.4021
      4  O2         1.9720   33.5790   57.3360 O.2     0  <0>0       -0.2264
      5  H4         3.5640   32.6210   54.8700 H       0  <0>0        0.1532
      6  O1         1.3040   32.0670   55.8550 O.3     0  <0>0       -0.4306
      7  C1        -0.0090   32.1230   56.4170 C.3     0  <0>0        0.2573
      8  C4         5.3100   33.3710   57.1530 C.3     0  <0>0        0.0575
      9  C5         5.4940   34.2120   58.3900 C.ar    0  <0>0       -0.0200
     10  C10        6.2670   33.7430   59.4370 C.ar    0  <0>0       -0.0042
     11  C9         6.4390   34.5160   60.5680 C.ar    0  <0>0       -0.0003
     12  C8         5.8320   35.7550   60.6590 C.ar    0  <0>0       -0.0000
     13  C7         5.0540   36.2210   59.6160 C.ar    0  <0>0       -0.0003
     14  C6         4.8860   35.4500   58.4810 C.ar    0  <0>0       -0.0042
     15  C11        5.1460   34.6590   55.0400 C.2     0  <0>0        0.3364
     16  O3         5.2940   34.0170   54.0280 O.2     0  <0>0       -0.2482
     17  O4         5.6830   35.8840   55.1420 O.3     0  <0>0       -0.4326
     18  C12        7.0920   35.9950   54.9250 C.3     0  <0>0        0.2845
     19  C13        7.7870   36.0300   56.2230 C.1     0  <0>0       -0.0392
     20  C14        8.3400   36.0580   57.2570 C.1     0  <0>0       -0.0608
     21  C15        9.0160   36.0920   58.5190 C.ar    0  <0>0        0.0417
     22  C20        8.8980   37.2090   59.3470 C.ar    0  <0>0        0.0082
     23  C19        9.5480   37.2340   60.5640 C.ar    0  <0>0        0.0006
     24  C18       10.3240   36.1590   60.9590 C.ar    0  <0>0        0.0000
     25  C17       10.4490   35.0510   60.1410 C.ar    0  <0>0        0.0006
     26  C16        9.8000   35.0110   58.9240 C.ar    0  <0>0        0.0082
@<TRIPOS>BOND
     1    16    15    2
     2     5     2    1
     3    18    17    1
     4    18    19    1
     5    15    17    1
     6    15     1    1
     7     2     1    1
     8     2     3   am
     9     6     3    1
    10     6     7    1
    11     1     8    1
    12    19    20    3
    13     3     4    2
    14     8     9    1
    15    20    21    1
    16     9    14   ar
    17     9    10   ar
    18    14    13   ar
    19    21    26   ar
    20    21    22   ar
    21    26    25   ar
    22    22    23   ar
    23    10    11   ar
    24    13    12   ar
    25    25    24   ar
    26    23    24   ar
    27    11    12   ar
