@<TRIPOS>MOLECULE
ZINC08790681_replica-1.pdb
 25 27 0 0 0
SMALL
GASTEIGER

@<TRIPOS>ATOM
      1  C8        -0.2520   30.2260   57.6590 C.ar    0  <0>0        0.2134
      2  N1         0.1790   30.2030   58.8990 N.ar    0  <0>0       -0.1202
      3  N2         0.2220   28.9910   59.3260 N.ar    0  <0>0       -0.1231
      4  C9        -0.1660   28.1710   58.3890 C.ar    0  <0>0        0.2246
      5  N3        -0.4830   28.9280   57.2920 N.ar    0  <0>0       -0.1831
      6  N4        -0.9470   28.4680   56.0520 N.2     0  <0>0       -0.1602
      7  C10       -0.1470   28.4410   55.0300 C.2     0  <0>0        0.1223
      8  C11       -0.6340   27.9580   53.7250 C.ar    0  <0>0        0.0429
      9  C16       -0.3330   26.6610   53.3010 C.ar    0  <0>0        0.0705
     10  C15       -0.7940   26.2140   52.0770 C.ar    0  <0>0        0.0683
     11 Cl          0.6160   25.6130   54.3080 Cl      0  <0>0       -0.0813
     12  C14       -1.5520   27.0490   51.2720 C.ar    0  <0>0        0.0131
     13 Cl         -0.4220   24.6040   51.5450 Cl      0  <0>0       -0.0814
     14  C13       -1.8540   28.3340   51.6880 C.ar    0  <0>0        0.0124
     15  C12       -1.4050   28.7920   52.9100 C.ar    0  <0>0        0.0601
     16 Cl         -1.7910   30.4020   53.4310 Cl      0  <0>0       -0.0822
     17  S1        -0.4840   31.6560   56.6560 S.3     0  <0>0       -0.0692
     18  C7        -0.0900   32.9500   57.8580 C.3     0  <0>0        0.0914
     19  C6         0.9890   33.8430   57.3010 C.ar    0  <0>0       -0.0108
     20  C1         2.0140   33.3010   56.5480 C.ar    0  <0>0       -0.0025
     21  C2         3.0040   34.1180   56.0370 C.ar    0  <0>0        0.0111
     22  C3         2.9690   35.4810   56.2790 C.ar    0  <0>0        0.0577
     23  C4         1.9420   36.0220   57.0320 C.ar    0  <0>0        0.0111
     24 Cl          4.2120   36.5080   55.6380 Cl      0  <0>0       -0.0822
     25  C5         0.9530   35.2040   57.5430 C.ar    0  <0>0       -0.0025
@<TRIPOS>BOND
     1    12    14   ar
     2    12    10   ar
     3    13    10    1
     4    14    15   ar
     5    10     9   ar
     6    15    16    1
     7    15     8   ar
     8     9     8   ar
     9     9    11    1
    10     8     7    1
    11     7     6    2
    12    24    22    1
    13    21    22   ar
    14    21    20   ar
    15     6     5    1
    16    22    23   ar
    17    20    19   ar
    18    17     1    1
    19    17    18    1
    20    23    25   ar
    21     5     1   ar
    22     5     4   ar
    23    19    25   ar
    24    19    18    1
    25     1     2   ar
    26     4     3   ar
    27     2     3   ar
