@<TRIPOS>MOLECULE
ZINC44725982_replica-1.pdb
 21 21 0 0 0
SMALL
GASTEIGER

@<TRIPOS>ATOM
      1  C6        10.6990   35.6660   61.1630 C.ar    0  <0>0        0.0447
      2  C7        10.5580   34.9650   59.9720 C.ar    0  <0>0        0.0156
      3  C8         9.5880   35.3420   59.0620 C.ar    0  <0>0        0.0199
      4  C9         8.7610   36.4160   59.3350 C.ar    0  <0>0        0.1143
      5  C10        8.9010   37.1160   60.5190 C.ar    0  <0>0        0.0199
      6  C11        9.8630   36.7410   61.4360 C.ar    0  <0>0        0.0156
      7  N1        11.6770   35.2880   62.0850 N.pl3   0  <0>0       -0.3320
      8  H12       11.8870   35.8660   62.8340 H       0  <0>0        0.1468
      9  C4        12.3860   34.0150   61.9210 C.3     0  <0>0        0.0990
     10  C5        13.8620   34.2050   62.2720 C.3     0  <0>0        0.0238
     11  C3        11.7710   32.9660   62.8500 C.3     0  <0>0        0.1615
     12  O1        12.8140   32.2280   63.4910 O.3     0  <0>0       -0.3520
     13  C2        12.7570   30.8200   63.2570 C.3     0  <0>0        0.1423
     14  C1        12.6030   30.0870   64.5910 C.3     0  <0>0        0.0346
     15  S1         7.5290   36.8940   58.1700 S.O2    0  <0>0        0.0920
     16  O2         7.8470   36.1710   56.9890 O.2     0  <0>0       -0.1612
     17  O3         6.2940   36.6820   58.8410 O.2     0  <0>0       -0.1612
     18  C12        7.8000   38.6690   57.9080 C.3     0  <0>0        0.5262
     19  F1         7.1420   39.3940   58.9090 F       0  <0>0       -0.1500
     20  F2         9.1700   38.9440   57.9590 F       0  <0>0       -0.1500
     21  F3         7.2960   39.0380   56.6570 F       0  <0>0       -0.1500
@<TRIPOS>BOND
     1    21    18    1
     2    16    15    2
     3    18    20    1
     4    18    15    1
     5    18    19    1
     6    15    17    2
     7    15     4    1
     8     3     4   ar
     9     3     2   ar
    10     4     5   ar
    11     2     1   ar
    12     5     6   ar
    13     1     6   ar
    14     1     7    1
    15     9     7    1
    16     9    10    1
    17     9    11    1
    18     7     8    1
    19    11    12    1
    20    13    12    1
    21    13    14    1
