@<TRIPOS>MOLECULE
ZINC48980885_replica-1.pdb
 22 22 0 0 0
SMALL
GASTEIGER

@<TRIPOS>ATOM
      1  C1        -1.8630   31.0200   56.1970 C.3     0  <0>0        0.0213
      2  C2        -0.3540   31.1710   55.9920 C.3     0  <0>0        0.0734
      3  C3         0.0550   30.4800   54.6890 C.3     0  <0>0        0.0243
      4  C4        -1.1950   30.1470   53.8730 C.3     0  <0>0        0.0280
      5  C5        -1.0440   28.7800   53.2570 C.ar    0  <0>0       -0.0221
      6  C10       -1.6610   28.4930   52.0540 C.ar    0  <0>0       -0.0038
      7  C9        -1.5180   27.2400   51.4860 C.ar    0  <0>0        0.0064
      8  C8        -0.7660   26.2720   52.1270 C.ar    0  <0>0        0.0345
      9  C7        -0.1530   26.5590   53.3330 C.ar    0  <0>0        0.0064
     10 Br         -0.5760   24.5570   51.3540 Br      0  <0>0       -0.0490
     11  C6        -0.2920   27.8130   53.8980 C.ar    0  <0>0       -0.0038
     12  N1        -0.0120   32.5930   55.9190 N.am    0  <0>0       -0.2906
     13  C11        1.1800   33.0250   56.3780 C.2     0  <0>0        0.3007
     14  O1         1.9700   32.2330   56.8530 O.2     0  <0>0       -0.2528
     15  N2         1.4940   34.3330   56.3110 N.am    0  <0>0       -0.2906
     16  H15        0.8620   34.9650   55.9310 H       0  <0>0        0.1509
     17  H14       -0.6430   33.2250   55.5390 H       0  <0>0        0.1509
     18  C12        2.7890   34.8020   56.8100 C.3     0  <0>0        0.0730
     19  C13        3.6070   35.3720   55.6490 C.3     0  <0>0        0.0213
     20  C14        2.5670   35.8930   57.8600 C.3     0  <0>0        0.0180
     21  C15        1.3830   35.5090   58.7510 C.3     0  <0>0        0.0017
     22  C16        3.8250   36.0400   58.7170 C.3     0  <0>0        0.0017
@<TRIPOS>BOND
     1    10     8    1
     2     7     6   ar
     3     7     8   ar
     4     6     5   ar
     5     8     9   ar
     6     5     4    1
     7     5    11   ar
     8     9    11   ar
     9     4     3    1
    10     3     2    1
    11    17    12    1
    12    19    18    1
    13    12     2    1
    14    12    13   am
    15    16    15    1
    16     2     1    1
    17    15    13   am
    18    15    18    1
    19    13    14    2
    20    18    20    1
    21    20    22    1
    22    20    21    1
