@<TRIPOS>MOLECULE
ZINC40341102_replica-1.pdb
 28 31 0 0 0
SMALL
GASTEIGER

@<TRIPOS>ATOM
      1  C8        -0.4840   29.7050   54.5380 C.ar    0  <0>0        0.1001
      2  C9        -0.0610   29.8370   55.8650 C.ar    0  <0>0        0.0407
      3  C10       -0.2120   31.1750   56.1770 C.ar    0  <0>0        0.1266
      4  N1        -0.7080   31.7730   55.0530 N.ar    0  <0>0       -0.2716
      5  H1        -0.9170   32.7170   54.9710 H       0  <0>0        0.1891
      6  N2        -0.8500   30.9010   54.1190 N.ar    0  <0>0       -0.1728
      7  C11        0.2180   31.3820   57.5640 C.2     0  <0>0        0.2664
      8  O1         0.2070   32.4520   58.1420 O.2     0  <0>0       -0.2683
      9  N3         0.6250   30.2210   58.1070 N.am    0  <0>0       -0.2688
     10  C12        0.4850   29.1650   57.0950 C.3     0  <0>0        0.1238
     11  C5        -0.5110   28.4500   53.7460 C.ar    0  <0>0        0.0191
     12  C4         0.2010   27.3340   54.1790 C.ar    0  <0>0        0.0012
     13  C3         0.1710   26.1700   53.4390 C.ar    0  <0>0       -0.0042
     14  C2        -0.5650   26.1090   52.2690 C.ar    0  <0>0       -0.0218
     15  C1        -0.5930   24.8340   51.4650 C.3     0  <0>0        0.0310
     16  C7        -1.2700   27.2160   51.8320 C.ar    0  <0>0       -0.0042
     17  C6        -1.2510   28.3840   52.5670 C.ar    0  <0>0        0.0012
     18  C13       -0.4740   28.1080   57.5770 C.ar    0  <0>0        0.0002
     19  C18       -1.8240   28.3910   57.6730 C.ar    0  <0>0       -0.0000
     20  C17       -2.7050   27.4200   58.1100 C.ar    0  <0>0        0.0294
     21  C16       -2.2350   26.1660   58.4610 C.ar    0  <0>0        0.1401
     22  C15       -0.8810   25.8850   58.3690 C.ar    0  <0>0        0.0294
     23  F1        -3.0950   25.2180   58.8930 F       0  <0>0       -0.2042
     24  C14       -0.0030   26.8560   57.9270 C.ar    0  <0>0       -0.0000
     25  C19        1.1240   30.0380   59.4720 C.3     0  <0>0        0.0943
     26  C20       -0.0290   30.2140   60.4630 C.3     0  <0>0        0.0199
     27  C21       -0.3130   28.8790   61.1560 C.3     0  <0>0        0.0018
     28  C22        0.3530   31.2610   61.5100 C.3     0  <0>0        0.0018
@<TRIPOS>BOND
     1    15    14    1
     2    16    14   ar
     3    16    17   ar
     4    14    13   ar
     5    17    11   ar
     6    13    12   ar
     7    11    12   ar
     8    11     1    1
     9     6     1   ar
    10     6     4   ar
    11     1     2   ar
    12     5     4    1
    13     4     3   ar
    14     2     3   ar
    15     2    10    1
    16     3     7    1
    17    10    18    1
    18    10     9    1
    19     7     9   am
    20     7     8    2
    21    18    19   ar
    22    18    24   ar
    23    19    20   ar
    24    24    22   ar
    25     9    25    1
    26    20    21   ar
    27    22    21   ar
    28    21    23    1
    29    25    26    1
    30    26    27    1
    31    26    28    1
