@<TRIPOS>MOLECULE
ZINC45330908_replica-1.pdb
 22 22 0 0 0
SMALL
GASTEIGER

@<TRIPOS>ATOM
      1  C12        1.8060   33.6180   57.5090 C.3     0  <0>0        0.1223
      2  C13        0.6790   34.6170   57.2350 C.3     0  <0>0        0.0314
      3  C14        1.6180   33.0210   58.8410 C.1     0  <0>0        0.0860
      4  N1         1.4730   32.5600   59.8690 N.1     0  <0>0       -0.1946
      5  C11        1.7790   32.5170   56.4470 C.3     0  <0>0        0.0291
      6  C10        0.3590   31.9620   56.3240 C.3     0  <0>0        0.0062
      7  C9         0.2340   31.1610   55.0260 C.3     0  <0>0        0.0474
      8  C8        -1.2350   30.8170   54.7780 C.3     0  <0>0        0.2054
      9  O1        -1.5490   29.5810   55.4240 O.3     0  <0>0       -0.4758
     10  C7        -0.9460   28.4620   54.9410 C.ar    0  <0>0        0.1342
     11  C2        -0.2140   27.6460   55.7910 C.ar    0  <0>0        0.0121
     12  C1        -0.0870   27.9980   57.2510 C.3     0  <0>0        0.0342
     13  C3         0.3930   26.5070   55.2990 C.ar    0  <0>0       -0.0016
     14  C4         0.2770   26.1840   53.9600 C.ar    0  <0>0       -0.0044
     15  C5        -0.4480   26.9990   53.1090 C.ar    0  <0>0       -0.0195
     16  C6        -1.0570   28.1380   53.5960 C.ar    0  <0>0        0.0323
     17  C16       -0.5710   26.6430   51.6500 C.3     0  <0>0        0.0225
     18  C17       -0.6930   25.1260   51.5030 C.3     0  <0>0        0.0047
     19  C18       -1.8160   27.3140   51.0650 C.3     0  <0>0        0.0047
     20  N2         3.0990   34.3130   57.4610 N.3     0  <0>0       -0.2873
     21  C15        3.8140   34.0070   56.2150 C.3     0  <0>0        0.0866
     22  H18        2.9790   35.3090   57.5730 H       0  <0>0        0.1241
@<TRIPOS>BOND
     1    19    17    1
     2    18    17    1
     3    17    15    1
     4    15    16   ar
     5    15    14   ar
     6    16    10   ar
     7    14    13   ar
     8     8     7    1
     9     8     9    1
    10    10     9    1
    11    10    11   ar
    12     7     6    1
    13    13    11   ar
    14    11    12    1
    15    21    20    1
    16     6     5    1
    17     5     1    1
    18     2     1    1
    19    20     1    1
    20    20    22    1
    21     1     3    1
    22     3     4    3
