@<TRIPOS>MOLECULE
ZINC11825738_replica-1.pdb
 29 30 0 0 0
SMALL
GASTEIGER

@<TRIPOS>ATOM
      1  C12        0.2640   31.6140   55.8840 C.3     0  <0>0        0.2525
      2  C11       -1.1400   31.2130   55.4310 C.3     0  <0>0        0.2525
      3  O1        -1.3600   29.8310   55.7230 O.3     0  <0>0       -0.4717
      4  C10       -1.0980   28.9400   54.7300 C.ar    0  <0>0        0.1349
      5  C5        -0.5400   27.7080   55.0330 C.ar    0  <0>0        0.0142
      6  C6        -0.2730   26.8030   54.0240 C.ar    0  <0>0        0.0356
      7  C7        -0.5630   27.1270   52.7070 C.ar    0  <0>0        0.1386
      8  C8        -1.1270   28.3580   52.4040 C.ar    0  <0>0        0.0400
      9  C9        -1.3880   29.2650   53.4120 C.ar    0  <0>0        0.0397
     10  C2        -0.2240   27.3560   56.4640 C.3     0  <0>0        0.0219
     11  C1        -1.4710   27.5600   57.3270 C.3     0  <0>0        0.0045
     12  C3         0.2170   25.8930   56.5450 C.3     0  <0>0        0.0045
     13  C4         0.9020   28.2570   56.9740 C.3     0  <0>0        0.0045
     14  O4        -0.3010   26.2360   51.7140 O.3     0  <0>0       -0.4714
     15  C21       -0.6840   24.8780   51.9440 C.3     0  <0>0        0.2525
     16  O2         0.2510   32.9730   56.3270 O.3     0  <0>0       -0.4713
     17  C13        0.5400   33.1970   57.6340 C.ar    0  <0>0        0.1434
     18  C18        0.9760   34.4640   58.0510 C.ar    0  <0>0        0.0537
     19  C17        1.2710   34.6870   59.4010 C.ar    0  <0>0        0.0079
     20  C16        1.1340   33.6640   60.3110 C.ar    0  <0>0        0.0372
     21  C15        0.7020   32.4080   59.8950 C.ar    0  <0>0        0.1418
     22  C14        0.4000   32.1790   58.5610 C.ar    0  <0>0        0.0738
     23  C19        1.1220   35.5540   57.0740 C.2     0  <0>0        0.0810
     24  S1         2.6810   36.0950   56.6210 S.2     0  <0>0       -0.0351
     25  N1         0.0270   36.1280   56.5360 N.am    0  <0>0       -0.3516
     26  H20       -0.8570   35.8220   56.7930 H       0  <0>0        0.1428
     27  H21        0.1230   36.8470   55.8910 H       0  <0>0        0.1428
     28  O3         0.5690   31.4060   60.8000 O.3     0  <0>0       -0.4713
     29  C20        1.5530   30.3700   60.7720 C.3     0  <0>0        0.2525
@<TRIPOS>BOND
     1    14    15    1
     2    14     7    1
     3     8     7   ar
     4     8     9   ar
     5     7     6   ar
     6     9     4   ar
     7     6     5   ar
     8     4     5   ar
     9     4     3    1
    10     5    10    1
    11     2     3    1
    12     2     1    1
    13     1    16    1
    14    27    25    1
    15    16    17    1
    16    10    12    1
    17    10    13    1
    18    10    11    1
    19    25    26    1
    20    25    23    1
    21    24    23    2
    22    23    18    1
    23    17    18   ar
    24    17    22   ar
    25    18    19   ar
    26    22    21   ar
    27    19    20   ar
    28    21    20   ar
    29    21    28    1
    30    29    28    1
