@<TRIPOS>MOLECULE
ZINC09959513_replica-1.pdb
 30 34 0 0 0
SMALL
GASTEIGER

@<TRIPOS>ATOM
      1  N1        -1.1400   30.2280   56.9980 N.ar    0  <0>0       -0.2762
      2  C8        -0.8900   29.5600   58.2060 C.ar    0  <0>0        0.0752
      3  C9        -1.5520   28.3490   58.7070 C.ar    0  <0>0        0.0226
      4  C10       -2.5780   27.6040   58.0790 C.ar    0  <0>0        0.0020
      5  C11       -3.0940   26.4960   58.6730 C.ar    0  <0>0        0.0001
      6  C12       -2.6390   26.0570   59.9090 C.ar    0  <0>0        0.0005
      7  C13       -1.6440   26.7580   60.5560 C.ar    0  <0>0        0.0065
      8  C14       -1.1060   27.8820   59.9590 C.ar    0  <0>0        0.0310
      9  S1         0.1550   29.0400   60.4300 S.2     0  <0>0       -0.0807
     10  C15        0.0920   30.1050   59.0140 C.ar    0  <0>0        0.1019
     11  C16        0.7920   31.2640   58.6360 C.ar    0  <0>0        0.2755
     12  O1         1.6530   31.7290   59.3610 O.2     0  <0>0       -0.2659
     13  N2         0.4970   31.8540   57.4570 N.ar    0  <0>0       -0.2268
     14  C17       -0.4550   31.3310   56.6660 C.ar    0  <0>0        0.3379
     15  O2        -0.7050   31.8790   55.6090 O.2     0  <0>0       -0.2458
     16  C7        -2.1640   29.7120   56.0870 C.3     0  <0>0        0.1381
     17  C5        -1.5080   28.9000   55.0010 C.ar    0  <0>0        0.0111
     18  C4        -1.8280   29.1310   53.6750 C.ar    0  <0>0        0.0555
     19  C3        -1.2200   28.3900   52.6770 C.ar    0  <0>0        0.0111
     20 Cl         -2.9870   30.3560   53.2620 Cl      0  <0>0       -0.0825
     21  C2        -0.3020   27.4110   53.0060 C.ar    0  <0>0        0.0008
     22  C1         0.0150   27.1770   54.3320 C.ar    0  <0>0       -0.0002
     23  C6        -0.5880   27.9210   55.3290 C.ar    0  <0>0       -0.0016
     24  C18        1.1820   33.0110   57.0600 C.ar    0  <0>0        0.0713
     25  C23        2.3490   32.9080   56.3150 C.ar    0  <0>0        0.0201
     26  C22        3.0210   34.0500   55.9260 C.ar    0  <0>0        0.0311
     27  C21        2.5320   35.2970   56.2770 C.ar    0  <0>0        0.1402
     28  C20        1.3690   35.4020   57.0210 C.ar    0  <0>0        0.0311
     29  F1         3.1920   36.4120   55.8960 F       0  <0>0       -0.2042
     30  C19        0.6900   34.2630   57.4070 C.ar    0  <0>0        0.0201
@<TRIPOS>BOND
     1    19    21   ar
     2    19    18   ar
     3    21    22   ar
     4    20    18    1
     5    18    17   ar
     6    22    23   ar
     7    17    23   ar
     8    17    16    1
     9    15    14    2
    10    29    27    1
    11    26    27   ar
    12    26    25   ar
    13    16     1    1
    14    27    28   ar
    15    25    24   ar
    16    14     1   ar
    17    14    13   ar
    18     1     2   ar
    19    28    30   ar
    20    24    30   ar
    21    24    13    1
    22    13    11   ar
    23     4     5   ar
    24     4     3   ar
    25     2     3   ar
    26     2    10   ar
    27    11    10   ar
    28    11    12    2
    29     5     6   ar
    30     3     8   ar
    31    10     9   ar
    32     6     7   ar
    33     8     9   ar
    34     8     7   ar
