@<TRIPOS>MOLECULE
ZINC40284026_replica-1.pdb
 22 25 0 0 0
SMALL
GASTEIGER

@<TRIPOS>ATOM
      1  C1         9.2360   35.4330   58.8010 C.ar    0  <0>0       -0.0019
      2  C2        10.1440   34.5970   59.4170 C.ar    0  <0>0        0.0141
      3  C3        10.7530   34.9830   60.6080 C.ar    0  <0>0        0.0467
      4  C4        10.4300   36.2160   61.1610 C.ar    0  <0>0        0.0001
      5  C5         9.5230   37.0490   60.5440 C.ar    0  <0>0       -0.0057
      6  C6         8.9230   36.6580   59.3600 C.ar    0  <0>0       -0.0081
      7  C15       11.2430   36.3400   62.4290 C.3     0  <0>0        0.1129
      8  C16       12.0270   35.0470   62.4920 C.2     0  <0>0        0.2306
      9  O3        12.8150   34.7230   63.3550 O.2     0  <0>0       -0.2744
     10  N1        11.6870   34.3260   61.4100 N.am    0  <0>0       -0.2839
     11  H12       12.0500   33.4490   61.2090 H       0  <0>0        0.1549
     12  C7         7.9290   37.5670   58.6820 C.3     0  <0>0        0.1015
     13 Br          6.4260   37.9190   59.8990 Br      0  <0>0       -0.0720
     14  C8         7.4170   36.9070   57.4280 C.ar    0  <0>0       -0.0046
     15  C13        6.2390   36.1840   57.4620 C.ar    0  <0>0        0.0371
     16  C12        5.7640   35.5790   56.3090 C.ar    0  <0>0        0.1761
     17  C11        6.4800   35.6940   55.1200 C.ar    0  <0>0        0.1764
     18  O1         4.6480   34.8280   56.0760 O.3     0  <0>0       -0.4346
     19  C10        7.6620   36.4160   55.0960 C.ar    0  <0>0        0.0399
     20  O2         5.8140   35.0150   54.1430 O.3     0  <0>0       -0.4346
     21  C9         8.1280   37.0210   56.2480 C.ar    0  <0>0        0.0002
     22  C14        4.4780   34.8270   54.6450 C.3     0  <0>0        0.4294
@<TRIPOS>BOND
     1    20    22    1
     2    20    17    1
     3    22    18    1
     4    19    17   ar
     5    19    21   ar
     6    17    16   ar
     7    18    16    1
     8    21    14   ar
     9    16    15   ar
    10    14    15   ar
    11    14    12    1
    12    12     6    1
    13    12    13    1
    14     1     6   ar
    15     1     2   ar
    16     6     5   ar
    17     2     3   ar
    18     5     4   ar
    19     3     4   ar
    20     3    10    1
    21     4     7    1
    22    11    10    1
    23    10     8   am
    24     7     8    1
    25     8     9    2
