@<TRIPOS>MOLECULE
ZINC41435432_replica-1.pdb
 31 35 0 0 0
SMALL
GASTEIGER

@<TRIPOS>ATOM
      1  C10        0.6120   31.8130   56.5490 C.ar    0  <0>0        0.1116
      2  C11        0.6420   33.1810   56.3280 C.ar    0  <0>0        0.0126
      3  C12        1.6530   33.9400   56.9700 C.ar    0  <0>0        0.0352
      4  C13        1.6130   35.3430   56.9450 C.ar    0  <0>0        0.0062
      5  C14        2.5680   36.0600   57.6020 C.ar    0  <0>0        0.0371
      6  C15        3.5910   35.4130   58.2920 C.ar    0  <0>0        0.1421
      7  C16        3.6590   34.0290   58.3120 C.ar    0  <0>0        0.0745
      8  C17        2.7010   33.2830   57.6440 C.ar    0  <0>0        0.1517
      9  O1         2.7800   31.9300   57.6190 O.2     0  <0>0       -0.4209
     10  C18        1.6160   31.2530   57.4720 C.ar    0  <0>0        0.3487
     11  O2         1.4060   30.2170   58.0750 O.2     0  <0>0       -0.2444
     12  C9        -0.3890   30.9520   55.8910 C.2     0  <0>0        0.1632
     13  S1        -2.1680   30.9540   56.0600 S.3     0  <0>0       -0.0746
     14  C8        -2.5020   29.6160   54.9220 C.3     0  <0>0        0.1233
     15  C7        -1.2290   29.2980   54.5240 C.2     0  <0>0        0.1208
     16  N1        -0.2070   29.9690   55.0220 N.2     0  <0>0       -0.3989
     17  C4        -1.0030   28.2030   53.5480 C.ar    0  <0>0        0.0263
     18  C3        -0.2840   27.0700   53.9230 C.ar    0  <0>0        0.0022
     19  C2        -0.0770   26.0550   53.0120 C.ar    0  <0>0        0.0001
     20  C1        -0.5800   26.1610   51.7270 C.ar    0  <0>0        0.0000
     21  C6        -1.2940   27.2830   51.3500 C.ar    0  <0>0        0.0001
     22  C5        -1.5070   28.3050   52.2530 C.ar    0  <0>0        0.0022
     23  O3         4.5280   36.1430   58.9500 O.3     0  <0>0       -0.4705
     24  C19        5.8660   35.6420   58.9380 C.3     0  <0>0        0.2342
     25  C20        6.7770   36.6560   58.2950 C.ar    0  <0>0        0.0486
     26  C25        7.1350   37.8020   58.9860 C.ar    0  <0>0        0.1396
     27  C24        7.9750   38.7310   58.3950 C.ar    0  <0>0        0.0294
     28  F1         6.6680   38.0100   60.2360 F       0  <0>0       -0.2044
     29  C23        8.4470   38.5180   57.1140 C.ar    0  <0>0        0.0023
     30  C22        8.0840   37.3770   56.4230 C.ar    0  <0>0       -0.0001
     31  C21        7.2500   36.4470   57.0130 C.ar    0  <0>0        0.0016
@<TRIPOS>BOND
     1    21    20   ar
     2    21    22   ar
     3    20    19   ar
     4    22    17   ar
     5    19    18   ar
     6    17    18   ar
     7    17    15    1
     8    15    14    1
     9    15    16    2
    10    14    13    1
    11    16    12    2
    12    12    13    1
    13    12     1    1
    14     2     1   ar
    15     2     3   ar
    16    30    31   ar
    17    30    29   ar
    18     1    10   ar
    19     4     3   ar
    20     4     5   ar
    21     3     8   ar
    22    31    25   ar
    23    29    27   ar
    24    10     9   ar
    25    10    11    2
    26     5     6   ar
    27     9     8   ar
    28     8     7   ar
    29     6     7   ar
    30     6    23    1
    31    25    24    1
    32    25    26   ar
    33    27    26   ar
    34    24    23    1
    35    26    28    1
