@<TRIPOS>MOLECULE
ZINC66824503_replica-1.pdb
 26 27 0 0 0
SMALL
GASTEIGER

@<TRIPOS>ATOM
      1  C6        10.8570   35.4090   61.1220 C.ar    0  <0>0        0.0504
      2  C7        10.1720   36.5470   61.5280 C.ar    0  <0>0        0.0161
      3  C8         9.1300   37.0340   60.7640 C.ar    0  <0>0        0.0215
      4  C9         8.7670   36.3900   59.5950 C.ar    0  <0>0        0.1271
      5  C10        9.4470   35.2570   59.1870 C.ar    0  <0>0        0.0215
      6  C11       10.4940   34.7680   59.9450 C.ar    0  <0>0        0.0161
      7  S2         7.4370   37.0160   58.6240 S.O2    0  <0>0        0.0928
      8  O2         6.5660   37.6940   59.5180 O.2     0  <0>0       -0.1483
      9  O3         8.0220   37.6550   57.4970 O.2     0  <0>0       -0.1483
     10  N2         6.5980   35.7110   58.0440 N.pl3   0  <0>0       -0.0965
     11  C12        5.2810   35.8660   57.6060 C.ar    0  <0>0        0.0932
     12  C17        4.2320   35.7770   58.5130 C.ar    0  <0>0        0.0477
     13  C16        2.9290   35.9380   58.0770 C.ar    0  <0>0        0.1415
     14  C15        2.6710   36.1740   56.7370 C.ar    0  <0>0        0.0297
     15  F1         1.9080   35.8570   58.9580 F       0  <0>0       -0.2041
     16  C14        3.7130   36.2570   55.8340 C.ar    0  <0>0        0.0037
     17  C13        5.0170   36.1040   56.2630 C.ar    0  <0>0        0.0182
     18  N1        11.9130   34.9130   61.8930 N.am    0  <0>0       -0.2839
     19  C5        11.8660   33.6530   62.3700 C.2     0  <0>0        0.2265
     20  O1        10.8710   32.9790   62.2030 O.2     0  <0>0       -0.2748
     21  H10       12.6800   35.4750   62.0850 H       0  <0>0        0.1549
     22  C2        13.0460   33.0830   63.1110 C.3     0  <0>0        0.0876
     23  C1        14.3300   33.7540   62.6190 C.3     0  <0>0        0.0105
     24  C3        13.1290   31.5760   62.8570 C.3     0  <0>0        0.0666
     25  S1        13.0810   30.6920   64.4410 S.3     0  <0>0       -0.1388
     26  C4        11.9910   29.2790   64.1220 C.3     0  <0>0        0.0692
@<TRIPOS>BOND
     1    16    17   ar
     2    16    14   ar
     3    17    11   ar
     4    14    13   ar
     5     9     7    2
     6    11    10    1
     7    11    12   ar
     8    10     7    1
     9    13    12   ar
    10    13    15    1
    11     7     8    2
    12     7     4    1
    13     5     4   ar
    14     5     6   ar
    15     4     3   ar
    16     6     1   ar
    17     3     2   ar
    18     1     2   ar
    19     1    18    1
    20    18    21    1
    21    18    19   am
    22    20    19    2
    23    19    22    1
    24    23    22    1
    25    24    22    1
    26    24    25    1
    27    26    25    1
