@<TRIPOS>MOLECULE
ZINC08898823_replica-1.pdb
 26 29 0 0 0
SMALL
GASTEIGER

@<TRIPOS>ATOM
      1  C1         3.8890   30.9550   58.6130 C.ar    0  <0>0       -0.0002
      2  C2         2.5400   30.6550   58.6750 C.ar    0  <0>0        0.0007
      3  C3         1.6480   31.5810   59.1750 C.ar    0  <0>0        0.0100
      4  C4         2.1090   32.8210   59.6210 C.ar    0  <0>0        0.0661
      5  C5         3.4710   33.1190   59.5500 C.ar    0  <0>0        0.0074
      6  C6         4.3530   32.1830   59.0490 C.ar    0  <0>0       -0.0019
      7  C20        1.1890   33.7860   60.1460 C.1     0  <0>0        0.1001
      8  N3         0.4600   34.5500   60.5620 N.1     0  <0>0       -0.1908
      9  C7         3.9780   34.4560   60.0230 C.3     0  <0>0        0.1227
     10  N1         4.6920   35.1230   58.9300 N.am    0  <0>0       -0.2540
     11  C11        6.0010   35.4000   59.0710 C.2     0  <0>0        0.2371
     12  C10        6.6920   36.0510   57.9980 C.3     0  <0>0        0.1452
     13  O1         6.5910   35.1000   60.0950 O.2     0  <0>0       -0.2740
     14  C9         5.9140   36.3490   56.8680 C.2     0  <0>0        0.0973
     15  C12        8.0900   36.4530   57.9100 C.2     0  <0>0       -0.0012
     16  N2         4.6210   36.0440   56.8030 N.2     0  <0>0       -0.2451
     17  S1         7.0620   37.1330   55.7640 S.3     0  <0>0       -0.0717
     18  C8         4.0190   35.4490   57.7970 C.3     0  <0>0        0.2224
     19  C13        8.5230   37.0620   56.7810 C.2     0  <0>0        0.0332
     20  C14        9.0220   36.1970   59.0350 C.ar    0  <0>0       -0.0026
     21  C19        9.1710   37.1420   60.0490 C.ar    0  <0>0        0.0002
     22  C18       10.0390   36.8990   61.0930 C.ar    0  <0>0        0.0067
     23  C17       10.7600   35.7180   61.1370 C.ar    0  <0>0        0.0346
     24  C16       10.6160   34.7760   60.1330 C.ar    0  <0>0        0.0067
     25 Br         11.9460   35.3910   62.5720 Br      0  <0>0       -0.0490
     26  C15        9.7460   35.0070   59.0870 C.ar    0  <0>0        0.0002
@<TRIPOS>BOND
     1    17    19    1
     2    17    14    1
     3    19    15    2
     4    16    14    2
     5    16    18    1
     6    14    12    1
     7    18    10    1
     8    15    12    1
     9    15    20    1
    10    12    11    1
    11     1     2   ar
    12     1     6   ar
    13     2     3   ar
    14    10    11   am
    15    10     9    1
    16    20    26   ar
    17    20    21   ar
    18     6     5   ar
    19    11    13    2
    20    26    24   ar
    21     3     4   ar
    22     5     4   ar
    23     5     9    1
    24     4     7    1
    25    21    22   ar
    26    24    23   ar
    27     7     8    3
    28    22    23   ar
    29    23    25    1
