@<TRIPOS>MOLECULE
ZINC67139302_replica-1.pdb
 25 26 0 0 0
SMALL
GASTEIGER

@<TRIPOS>ATOM
      1  C3         6.6820   35.0910   58.5880 C.2     0  <0>0        0.2438
      2  O1         6.8620   33.8930   58.5990 O.2     0  <0>0       -0.2731
      3  N1         7.6350   35.9120   58.1020 N.am    0  <0>0       -0.2757
      4  C2         5.3940   35.6660   59.1180 C.3     0  <0>0        0.1513
      5  C1         5.4960   35.8330   60.6360 C.3     0  <0>0        0.0313
      6  N2         4.2880   34.7580   58.8010 N.am    0  <0>0       -0.2640
      7  C14        3.4600   35.0370   57.7750 C.2     0  <0>0        0.4017
      8  O2         3.6310   36.0430   57.1130 O.2     0  <0>0       -0.2264
      9  H16        4.1530   33.9560   59.3280 H       0  <0>0        0.1532
     10  O3         2.4440   34.2030   57.4820 O.3     0  <0>0       -0.4419
     11  C15        1.1420   34.5860   57.9270 C.3     0  <0>0        0.1378
     12  C16        0.5520   35.6110   56.9570 C.3     0  <0>0        0.0437
     13  C17        0.2370   33.3530   57.9800 C.3     0  <0>0        0.0437
     14  C18        1.2420   35.2050   59.3230 C.3     0  <0>0        0.0437
     15  C4         9.0220   35.4480   58.0060 C.3     0  <0>0        0.1201
     16  C5         9.7020   35.6190   59.3400 C.ar    0  <0>0       -0.0022
     17  C10       10.5330   34.6260   59.8250 C.ar    0  <0>0       -0.0003
     18  C9        11.1610   34.7840   61.0460 C.ar    0  <0>0        0.0294
     19  C8        10.9480   35.9330   61.7900 C.ar    0  <0>0        0.1401
     20  C7        10.1110   36.9240   61.3060 C.ar    0  <0>0        0.0294
     21  F1        11.5570   36.0870   62.9850 F       0  <0>0       -0.2042
     22  C6         9.4880   36.7660   60.0820 C.ar    0  <0>0       -0.0003
     23  C11        7.2850   37.2660   57.6700 C.3     0  <0>0        0.0758
     24  C13        8.3010   38.0170   56.8050 C.3     0  <0>0        0.0215
     25  C12        7.0090   37.4840   56.1800 C.3     0  <0>0        0.0215
@<TRIPOS>BOND
     1    25    24    1
     2    25    23    1
     3    24    23    1
     4    12    11    1
     5     8     7    2
     6    10     7    1
     7    10    11    1
     8    23     3    1
     9     7     6   am
    10    11    13    1
    11    11    14    1
    12    15     3    1
    13    15    16    1
    14     3     1   am
    15     1     2    2
    16     1     4    1
    17     6     4    1
    18     6     9    1
    19     4     5    1
    20    16    17   ar
    21    16    22   ar
    22    17    18   ar
    23    22    20   ar
    24    18    19   ar
    25    20    19   ar
    26    19    21    1
