@<TRIPOS>MOLECULE
ZINC05673093_replica-1.pdb
 26 28 0 0 0
SMALL
GASTEIGER

@<TRIPOS>ATOM
      1  C10        8.3920   37.5540   58.8160 C.2     0  <0>0        0.3457
      2  O4         7.9470   38.5620   59.3280 O.2     0  <0>0       -0.2445
      3  O3         8.0850   37.2530   57.5380 O.3     0  <0>0       -0.4210
      4  C7         6.8280   36.8000   57.2980 C.ar    0  <0>0        0.1488
      5  C6         6.0400   36.3470   58.3510 C.ar    0  <0>0        0.0378
      6  C5         4.7650   35.8870   58.1100 C.ar    0  <0>0        0.0096
      7  C4         4.2630   35.8760   56.8070 C.ar    0  <0>0        0.0758
      8  C9         5.0580   36.3320   55.7510 C.ar    0  <0>0        0.0096
      9  C8         6.3290   36.7950   56.0000 C.ar    0  <0>0        0.0378
     10  C3         2.8970   35.3830   56.5450 C.2     0  <0>0        0.3412
     11  O2         2.7330   34.3400   55.9450 O.2     0  <0>0       -0.2449
     12  O1         1.8310   36.0900   56.9720 O.3     0  <0>0       -0.4454
     13  C2         0.7850   35.3540   57.6590 C.3     0  <0>0        0.2089
     14  C1         1.1780   35.1580   59.1240 C.3     0  <0>0        0.0513
     15  C11        9.2700   36.6580   59.5930 C.ar    0  <0>0        0.0760
     16  C16        9.7480   37.0590   60.8430 C.ar    0  <0>0        0.0065
     17  C15       10.5620   36.2200   61.5700 C.ar    0  <0>0        0.0002
     18  C14       10.9190   34.9740   61.0540 C.ar    0  <0>0        0.0000
     19  C13       10.4430   34.5720   59.8060 C.ar    0  <0>0        0.0002
     20  C12        9.6250   35.4080   59.0790 C.ar    0  <0>0        0.0065
     21  C17       11.8000   34.0730   61.8350 C.ar    0  <0>0        0.0000
     22  C22       11.2930   32.8900   62.3700 C.ar    0  <0>0        0.0000
     23  C21       12.1180   32.0550   63.0970 C.ar    0  <0>0        0.0000
     24  C20       13.4450   32.3910   63.2950 C.ar    0  <0>0        0.0000
     25  C19       13.9550   33.5610   62.7620 C.ar    0  <0>0        0.0000
     26  C18       13.1380   34.4070   62.0380 C.ar    0  <0>0        0.0000
@<TRIPOS>BOND
     1     8     9   ar
     2     8     7   ar
     3    11    10    2
     4     9     4   ar
     5    10     7    1
     6    10    12    1
     7     7     6   ar
     8    12    13    1
     9     4     3    1
    10     4     5   ar
    11     3     1    1
    12    13    14    1
    13     6     5   ar
    14     1     2    2
    15     1    15    1
    16    20    15   ar
    17    20    19   ar
    18    15    16   ar
    19    19    18   ar
    20    16    17   ar
    21    18    17   ar
    22    18    21    1
    23    21    26   ar
    24    21    22   ar
    25    26    25   ar
    26    22    23   ar
    27    25    24   ar
    28    23    24   ar
