@<TRIPOS>MOLECULE
ZINC34386982_replica-1.pdb
 28 30 0 0 0
SMALL
GASTEIGER

@<TRIPOS>ATOM
      1  C3         6.1130   36.0370   58.5150 C.ar    0  <0>0        0.0369
      2  C4         5.0580   35.5530   57.8110 C.ar    0  <0>0        0.0171
      3  C5         5.4840   35.5350   56.4010 C.ar    0  <0>0        0.0658
      4  C6         6.7640   36.0120   56.3860 C.ar    0  <0>0        0.0415
      5  N1         7.1270   36.3140   57.6470 N.ar    0  <0>0       -0.3338
      6  C14        7.6250   36.1810   55.1600 C.3     0  <0>0        0.0501
      7  C16        3.7450   35.1290   58.3530 C.ar    0  <0>0        0.0014
      8  C21        2.6640   36.0090   58.3340 C.ar    0  <0>0        0.0032
      9  C20        1.4410   35.6090   58.8320 C.ar    0  <0>0        0.0369
     10  C19        1.2900   34.3350   59.3630 C.ar    0  <0>0        0.1387
     11  C18        2.3650   33.4580   59.3890 C.ar    0  <0>0        0.0369
     12  C17        3.5880   33.8500   58.8870 C.ar    0  <0>0        0.0032
     13  O2         0.0860   33.9470   59.8590 O.3     0  <0>0       -0.4714
     14  C22       -0.0550   33.9250   61.2800 C.3     0  <0>0        0.2525
     15  C2         6.1540   36.2410   60.0080 C.3     0  <0>0        0.0438
     16  C1         5.6700   37.6540   60.3430 C.3     0  <0>0        0.0066
     17  C15        4.6910   35.0920   55.2430 C.2     0  <0>0        0.2439
     18  O1         4.9510   34.0380   54.6950 O.2     0  <0>0       -0.2703
     19  N2         3.6760   35.8540   54.7910 N.am    0  <0>0       -0.3253
     20  H22        3.4680   36.6940   55.2290 H       0  <0>0        0.1453
     21  H23        3.1520   35.5630   54.0280 H       0  <0>0        0.1453
     22  C7         8.4300   36.8590   58.0330 C.3     0  <0>0        0.1054
     23  C8         8.8820   36.2190   59.3470 C.3     0  <0>0        0.0226
     24  C13        9.8900   35.1070   59.0540 C.3     0  <0>0        0.0019
     25  C12       10.3420   34.4670   60.3680 C.3     0  <0>0        0.0001
     26  C11       10.9980   35.5290   61.2530 C.3     0  <0>0        0.0000
     27  C10        9.9900   36.6410   61.5460 C.3     0  <0>0        0.0001
     28  C9         9.5380   37.2810   60.2320 C.3     0  <0>0        0.0019
@<TRIPOS>BOND
     1    21    19    1
     2    18    17    2
     3    19    20    1
     4    19    17   am
     5     6     4    1
     6    17     3    1
     7     4     3   ar
     8     4     5   ar
     9     3     2   ar
    10     5    22    1
    11     5     1   ar
    12     2     7    1
    13     2     1   ar
    14    22    23    1
    15     8     7   ar
    16     8     9   ar
    17     7    12   ar
    18     1    15    1
    19     9    10   ar
    20    12    11   ar
    21    24    23    1
    22    24    25    1
    23    23    28    1
    24    10    11   ar
    25    10    13    1
    26    13    14    1
    27    15    16    1
    28    28    27    1
    29    25    26    1
    30    26    27    1
