@<TRIPOS>MOLECULE
ZINC00074206_replica-1.pdb
 23 24 0 0 0
SMALL
GASTEIGER

@<TRIPOS>ATOM
      1  C10       -0.6160   30.1800   56.9440 C.3     0  <0>0        0.1176
      2  N1        -0.0350   28.8550   56.7120 N.pl3   0  <0>0       -0.3307
      3  H13        0.4460   28.4060   57.4230 H       0  <0>0        0.1469
      4  C7        -0.1730   28.2420   55.4650 C.ar    0  <0>0        0.0447
      5  C6        -0.9800   28.8170   54.4910 C.ar    0  <0>0        0.0140
      6  C5        -1.1140   28.2090   53.2590 C.ar    0  <0>0       -0.0030
      7  C4        -0.4460   27.0280   52.9940 C.ar    0  <0>0       -0.0224
      8  C9         0.3540   26.4490   53.9610 C.ar    0  <0>0       -0.0030
      9  C8         0.4970   27.0550   55.1940 C.ar    0  <0>0        0.0140
     10  C2        -0.5950   26.3660   51.6480 C.3     0  <0>0        0.0224
     11  C1        -0.7370   24.8540   51.8350 C.3     0  <0>0        0.0047
     12  C3        -1.8400   26.9130   50.9460 C.3     0  <0>0        0.0047
     13  C11        0.4910   31.2370   56.9030 C.3     0  <0>0        0.1410
     14  C12        1.3680   31.1040   58.1490 C.3     0  <0>0        0.0931
     15  S1         1.8520   32.7550   58.7260 S.3     0  <0>0       -0.1111
     16  C13        0.9620   32.9560   60.2340 C.ar    0  <0>0        0.0253
     17  C18        0.4570   34.2030   60.5840 C.ar    0  <0>0        0.0062
     18  C17       -0.2450   34.3560   61.7630 C.ar    0  <0>0        0.0005
     19  C16       -0.4340   33.2720   62.6020 C.ar    0  <0>0        0.0000
     20  C15        0.0720   32.0320   62.2610 C.ar    0  <0>0        0.0005
     21  C14        0.7700   31.8700   61.0800 C.ar    0  <0>0        0.0062
     22  O1         1.2890   31.0440   55.7340 O.3     0  <0>0       -0.3818
     23  H23        1.5320   31.8650   55.2830 H       0  <0>0        0.2104
@<TRIPOS>BOND
     1    12    10    1
     2    10    11    1
     3    10     7    1
     4     7     6   ar
     5     7     8   ar
     6     6     5   ar
     7     8     9   ar
     8     5     4   ar
     9     9     4   ar
    10    23    22    1
    11     4     2    1
    12    22    13    1
    13     2     1    1
    14     2     3    1
    15    13     1    1
    16    13    14    1
    17    14    15    1
    18    15    16    1
    19    16    17   ar
    20    16    21   ar
    21    17    18   ar
    22    21    20   ar
    23    18    19   ar
    24    20    19   ar
