@<TRIPOS>MOLECULE
ZINC07002562_replica-1.pdb
 27 29 0 0 0
SMALL
GASTEIGER

@<TRIPOS>ATOM
      1  C6         0.6060   30.7630   59.3380 C.2     0  <0>0       -0.0267
      2  C7         0.3320   29.7960   60.2290 C.2     0  <0>0        0.0027
      3  S1        -0.9510   28.8500   59.4300 S.3     0  <0>0       -0.0639
      4  C8        -1.0810   29.7800   57.9240 C.2     0  <0>0        0.1514
      5  C9        -0.1280   30.8020   58.0870 C.3     0  <0>0        0.1537
      6  C10       -0.0100   31.7190   56.9920 C.2     0  <0>0        0.2383
      7  O1         0.7900   32.6370   57.0360 O.2     0  <0>0       -0.2739
      8  N1        -0.8030   31.5540   55.9170 N.am    0  <0>0       -0.2610
      9  H2        -0.7280   32.1940   55.1520 H       0  <0>0        0.1570
     10  C11       -1.7010   30.5380   55.8500 C.2     0  <0>0        0.1827
     11  N2        -1.8280   29.6830   56.8290 N.2     0  <0>0       -0.3866
     12  C20        0.9580   29.5660   61.5810 C.3     0  <0>0        0.0376
     13  C12       -2.5680   30.3960   54.6260 C.3     0  <0>0        0.1634
     14  N3        -1.7180   30.2370   53.4430 N.pl3   0  <0>0       -0.3258
     15  H15       -1.3560   31.0180   52.9970 H       0  <0>0        0.1472
     16  C13       -1.4280   28.9590   52.9580 C.ar    0  <0>0        0.0449
     17  C18       -0.6150   28.1040   53.6900 C.ar    0  <0>0        0.0140
     18  C17       -0.3300   26.8420   53.2080 C.ar    0  <0>0       -0.0030
     19  C16       -0.8550   26.4280   51.9970 C.ar    0  <0>0       -0.0218
     20  C15       -1.6650   27.2770   51.2650 C.ar    0  <0>0       -0.0030
     21  C19       -0.5420   25.0500   51.4740 C.3     0  <0>0        0.0310
     22  C14       -1.9570   28.5390   51.7440 C.ar    0  <0>0        0.0140
     23  C5         1.6610   31.7970   59.6360 C.3     0  <0>0        0.0231
     24  C3         1.0080   33.0230   60.2780 C.3     0  <0>0        0.0041
     25  C4         0.9990   32.8570   61.7990 C.3     0  <0>0        0.0003
     26  C2         1.8010   34.2770   59.9060 C.3     0  <0>0        0.0003
     27  C1         0.9500   35.1690   59.0000 C.3     0  <0>0        0.0000
@<TRIPOS>BOND
     1    20    22   ar
     2    20    19   ar
     3    21    19    1
     4    22    16   ar
     5    19    18   ar
     6    16    14    1
     7    16    17   ar
     8    15    14    1
     9    18    17   ar
    10    14    13    1
    11    13    10    1
    12     9     8    1
    13    10     8    1
    14    10    11    2
    15     8     6   am
    16    11     4    2
    17     6     7    2
    18     6     5    1
    19     4     5    1
    20     4     3    1
    21     5     1    1
    22    27    26    1
    23     1    23    1
    24     1     2    2
    25     3     2    1
    26    23    24    1
    27    26    24    1
    28     2    12    1
    29    24    25    1
