@<TRIPOS>MOLECULE
ZINC16161948_replica-1.pdb
 30 33 0 0 0
SMALL
GASTEIGER

@<TRIPOS>ATOM
      1  C9        -0.0220   30.7340   55.4320 C.3     0  <0>0        0.2016
      2  N2         1.3810   31.1440   55.6070 N.am    0  <0>0       -0.2775
      3  C10        1.6570   32.0360   56.5420 C.2     0  <0>0        0.2535
      4  O1         2.8030   32.4080   56.7160 O.2     0  <0>0       -0.2695
      5  C11        0.5690   32.5700   57.3730 C.2     0  <0>0        0.0846
      6  C12        0.6390   33.4820   58.3820 C.2     0  <0>0        0.0483
      7  S1        -0.8690   31.7310   56.7240 S.3     0  <0>0       -0.0696
      8  H12        2.0820   30.7740   55.0470 H       0  <0>0        0.1520
      9  C13        1.8980   33.8920   58.8780 C.ar    0  <0>0        0.1460
     10  O2         2.7160   34.8020   58.3100 O.2     0  <0>0       -0.4535
     11  C16        3.8270   34.9340   59.0590 C.ar    0  <0>0        0.1453
     12  C15        3.7270   34.1050   60.1390 C.ar    0  <0>0        0.0406
     13  C14        2.5030   33.4370   60.0340 C.ar    0  <0>0        0.0406
     14  C17        4.9600   35.8320   58.7660 C.ar    0  <0>0        0.0346
     15  C22        5.4960   36.6380   59.7720 C.ar    0  <0>0        0.0035
     16  C21        6.5550   37.4750   59.4910 C.ar    0  <0>0        0.0068
     17  C20        7.0880   37.5170   58.2150 C.ar    0  <0>0        0.0346
     18  C19        6.5650   36.7170   57.2120 C.ar    0  <0>0        0.0068
     19 Br          8.5420   38.6670   57.8380 Br      0  <0>0       -0.0490
     20  C18        5.5030   35.8790   57.4780 C.ar    0  <0>0        0.0035
     21  N1        -0.1840   29.3010   55.6860 N.pl3   0  <0>0       -0.3100
     22  H11       -0.1820   28.9660   56.5960 H       0  <0>0        0.1491
     23  C6        -0.3430   28.4160   54.6170 C.ar    0  <0>0        0.0463
     24  C5         0.2660   27.1670   54.6500 C.ar    0  <0>0        0.0140
     25  C4         0.1060   26.2940   53.5910 C.ar    0  <0>0       -0.0030
     26  C3        -0.6580   26.6630   52.4990 C.ar    0  <0>0       -0.0221
     27  C8        -1.2660   27.9040   52.4630 C.ar    0  <0>0       -0.0030
     28  C7        -1.1140   28.7800   53.5200 C.ar    0  <0>0        0.0140
     29  C2        -0.8290   25.7080   51.3460 C.3     0  <0>0        0.0264
     30  C1        -0.5410   24.2810   51.8180 C.3     0  <0>0        0.0050
@<TRIPOS>BOND
     1    29    30    1
     2    29    26    1
     3    27    26   ar
     4    27    28   ar
     5    26    25   ar
     6    28    23   ar
     7    25    24   ar
     8    23    24   ar
     9    23    21    1
    10     8     2    1
    11     1     2    1
    12     1    21    1
    13     1     7    1
    14     2     3   am
    15    21    22    1
    16     3     4    2
    17     3     5    1
    18     7     5    1
    19    18    20   ar
    20    18    17   ar
    21     5     6    2
    22    20    14   ar
    23    19    17    1
    24    17    16   ar
    25    10     9   ar
    26    10    11   ar
    27     6     9    1
    28    14    11    1
    29    14    15   ar
    30     9    13   ar
    31    11    12   ar
    32    16    15   ar
    33    13    12   ar
