@<TRIPOS>MOLECULE
ZINC37507793_replica-1.pdb
 21 22 0 0 0
SMALL
GASTEIGER

@<TRIPOS>ATOM
      1  C1        11.6690   36.4740   62.8200 C.3     0  <0>0       -0.0189
      2  C2        11.1800   35.2360   62.0660 C.3     0  <0>0       -0.0385
      3  C3        10.3980   35.6630   60.8500 C.ar    0  <0>0       -0.0421
      4  C8        10.2580   34.8010   59.7800 C.ar    0  <0>0       -0.0066
      5  C7         9.5380   35.1920   58.6670 C.ar    0  <0>0       -0.0047
      6  C6         8.9640   36.4490   58.6220 C.ar    0  <0>0       -0.0228
      7  C5         9.1080   37.3130   59.6910 C.ar    0  <0>0       -0.0047
      8  C4         9.8260   36.9210   60.8050 C.ar    0  <0>0       -0.0066
      9  C9         8.1820   36.8770   57.4070 C.3     0  <0>0        0.0189
     10  C10        8.5520   38.3150   57.0410 C.3     0  <0>0        0.0044
     11  C11        8.5130   35.9510   56.2350 C.3     0  <0>0        0.0044
     12  C12        6.6840   36.7970   57.7120 C.3     0  <0>0        0.0044
     13  N1        12.3350   34.4290   61.6470 N.4     0  <0>0        0.3876
     14  H19       12.0210   33.6740   61.0570 H       0  <0>0       -0.0839
     15  H28       12.9810   35.0100   61.1350 H       0  <0>0       -0.0839
     16  C13       13.0040   33.8800   62.8330 C.3     0  <0>0       -0.0785
     17  C14       13.0810   32.3560   62.7140 C.3     0  <0>0        0.0109
     18  C17       14.0910   31.7860   63.7290 C.3     0  <0>0        0.1400
     19  O1        13.3520   30.9500   64.6390 O.3     0  <0>0       -0.3539
     20  C16       12.1910   30.4730   63.9260 C.3     0  <0>0        0.1422
     21  C15       11.7310   31.7120   63.1170 C.3     0  <0>0        0.0324
@<TRIPOS>BOND
     1    11     9    1
     2    10     9    1
     3     9    12    1
     4     9     6    1
     5     6     5   ar
     6     6     7   ar
     7     5     4   ar
     8     7     8   ar
     9     4     3   ar
    10     8     3   ar
    11     3     2    1
    12    14    13    1
    13    15    13    1
    14    13     2    1
    15    13    16    1
    16     2     1    1
    17    17    16    1
    18    17    21    1
    19    17    18    1
    20    21    20    1
    21    18    19    1
    22    20    19    1
