@<TRIPOS>MOLECULE
ZINC05328232_replica-1.pdb
 24 26 0 0 0
SMALL
GASTEIGER

@<TRIPOS>ATOM
      1  C9         7.7640   37.7690   57.6480 C.2     0  <0>0        0.2845
      2  N1         6.6150   37.1430   57.6890 N.2     0  <0>0       -0.3648
      3  C10        6.4230   36.4880   56.5100 C.2     0  <0>0        0.1924
      4  C11        5.3370   35.7130   56.1530 C.3     0  <0>0        0.0953
      5  C18        7.6200   36.7760   55.6990 C.2     0  <0>0        0.3738
      6  O2         7.8620   36.3810   54.5730 O.2     0  <0>0       -0.2419
      7  O3         8.3900   37.5740   56.4690 O.3     0  <0>0       -0.3911
      8  C12        4.2900   35.4240   57.1320 C.ar    0  <0>0        0.0193
      9  C17        3.0080   35.9860   56.9860 C.ar    0  <0>0        0.1301
     10  C16        2.0240   35.7010   57.9180 C.ar    0  <0>0        0.0368
     11  C15        2.3030   34.8770   58.9920 C.ar    0  <0>0        0.0098
     12  C14        3.5660   34.3230   59.1450 C.ar    0  <0>0        0.0345
     13  C13        4.5580   34.5900   58.2260 C.ar    0  <0>0        0.0058
     14 Br          3.9270   33.1980   60.6200 Br      0  <0>0       -0.0490
     15  O1         2.7370   36.8000   55.9350 O.3     0  <0>0       -0.5058
     16  H12        2.2230   36.3760   55.2330 H       0  <0>0        0.2922
     17  C8         8.3010   38.5780   58.7410 C.2     0  <0>0        0.0721
     18  C7         8.8930   37.9810   59.7950 C.2     0  <0>0        0.0060
     19  C4         8.8340   36.5170   59.9390 C.ar    0  <0>0        0.0002
     20  C3         9.9150   35.7270   59.5320 C.ar    0  <0>0        0.0000
     21  C2         9.8520   34.3570   59.6700 C.ar    0  <0>0        0.0000
     22  C1         8.7250   33.7620   60.2090 C.ar    0  <0>0        0.0000
     23  C6         7.6520   34.5370   60.6150 C.ar    0  <0>0        0.0000
     24  C5         7.7010   35.9090   60.4880 C.ar    0  <0>0        0.0000
@<TRIPOS>BOND
     1     6     5    2
     2    16    15    1
     3     5     7    1
     4     5     3    1
     5    15     9    1
     6     4     3    1
     7     4     8    1
     8     7     1    1
     9     3     2    2
    10     9     8   ar
    11     9    10   ar
    12     8    13   ar
    13     1     2    2
    14     1    17    1
    15    10    11   ar
    16    13    12   ar
    17    17    18    2
    18    11    12   ar
    19    12    14    1
    20    20    21   ar
    21    20    19   ar
    22    21    22   ar
    23    18    19    1
    24    19    24   ar
    25    22    23   ar
    26    24    23   ar
