@<TRIPOS>MOLECULE
ZINC52204950_replica-1.pdb
 21 22 0 0 0
SMALL
GASTEIGER

@<TRIPOS>ATOM
      1  C9         8.8150   36.1660   60.3810 C.3     0  <0>0        0.1213
      2  C8         8.6830   36.8450   59.0420 C.ar    0  <0>0       -0.0061
      3  C3         8.6460   36.0900   57.8850 C.ar    0  <0>0       -0.0245
      4  C4         8.5200   36.7130   56.6570 C.ar    0  <0>0       -0.0045
      5  C5         8.4360   38.0900   56.5870 C.ar    0  <0>0       -0.0003
      6  C6         8.4780   38.8460   57.7430 C.ar    0  <0>0       -0.0003
      7  C7         8.6030   38.2240   58.9710 C.ar    0  <0>0       -0.0029
      8  C2         8.7380   34.5880   57.9640 C.3     0  <0>0        0.0261
      9  C1         8.0900   33.9720   56.7220 C.3     0  <0>0        0.0050
     10  C10        7.7960   36.7590   61.3560 C.3     0  <0>0        0.1610
     11  O1         8.4830   37.4020   62.4320 O.3     0  <0>0       -0.3799
     12  H13        7.9070   37.9100   63.0180 H       0  <0>0        0.2105
     13  N1        10.1680   36.3740   60.9030 N.pl3   0  <0>0       -0.3287
     14  H14       10.5890   37.2450   60.8270 H       0  <0>0        0.1471
     15  C11       10.8510   35.3200   61.5110 C.ar    0  <0>0        0.0449
     16  C16       10.4350   34.0100   61.3070 C.ar    0  <0>0        0.0140
     17  C15       11.1160   32.9690   61.9060 C.ar    0  <0>0       -0.0030
     18  C14       12.2060   33.2290   62.7180 C.ar    0  <0>0       -0.0218
     19  C13       12.6190   34.5320   62.9280 C.ar    0  <0>0       -0.0030
     20  C17       12.9440   32.0910   63.3750 C.3     0  <0>0        0.0310
     21  C12       11.9460   35.5780   62.3270 C.ar    0  <0>0        0.0140
@<TRIPOS>BOND
     1     5     4   ar
     2     5     6   ar
     3     4     3   ar
     4     9     8    1
     5     6     7   ar
     6     3     8    1
     7     3     2   ar
     8     7     2   ar
     9     2     1    1
    10     1    13    1
    11     1    10    1
    12    14    13    1
    13    13    15    1
    14    16    15   ar
    15    16    17   ar
    16    10    11    1
    17    15    21   ar
    18    17    18   ar
    19    21    19   ar
    20    11    12    1
    21    18    19   ar
    22    18    20    1
