@<TRIPOS>MOLECULE
ZINC01102636_replica-1.pdb
 29 33 0 0 0
SMALL
GASTEIGER

@<TRIPOS>ATOM
      1  C9        -0.1690   28.8290   56.1850 C.3     0  <0>0        0.0716
      2  C10       -0.9150   29.1180   54.9140 C.ar    0  <0>0        0.0007
      3  C11       -0.8520   28.2150   53.8400 C.ar    0  <0>0        0.0155
      4  C12       -0.0960   27.0300   53.9300 C.ar    0  <0>0        0.0028
      5  C13       -0.0760   26.1950   52.8490 C.ar    0  <0>0        0.0207
      6  C14       -0.7910   26.5290   51.6990 C.ar    0  <0>0        0.0988
      7  N1        -1.4930   27.6330   51.6210 N.ar    0  <0>0       -0.2438
      8  C15       -1.5570   28.4920   52.6440 C.ar    0  <0>0        0.0811
      9  C16       -2.3170   29.6730   52.5520 C.ar    0  <0>0        0.0203
     10  C17       -2.3650   30.5320   53.6020 C.ar    0  <0>0        0.0158
     11  C18       -1.6660   30.2650   54.7870 C.ar    0  <0>0        0.0447
     12  N2        -1.7280   31.1680   55.8490 N.pl3   0  <0>0       -0.3162
     13  C19       -0.7680   31.1620   56.8200 C.2     0  <0>0        0.0246
     14  C20        0.0080   30.0750   57.0140 C.2     0  <0>0        0.0296
     15  C21        1.0130   30.0740   57.9960 C.2     0  <0>0        0.1706
     16  O2         1.6960   29.0800   58.1470 O.2     0  <0>0       -0.2916
     17  C22        1.2600   31.2770   58.8630 C.3     0  <0>0        0.0693
     18  C23        0.8540   32.5390   58.0950 C.3     0  <0>0        0.0141
     19  C24       -0.6050   32.3980   57.6700 C.3     0  <0>0        0.0414
     20  H16       -2.4590   31.8050   55.8980 H       0  <0>0        0.1519
     21  C6        -0.9380   27.8110   56.9860 C.ar    0  <0>0       -0.0140
     22  C5        -0.3610   26.5900   57.2870 C.ar    0  <0>0       -0.0005
     23  C4        -1.0630   25.6550   58.0210 C.ar    0  <0>0        0.0366
     24  C3        -2.3490   25.9400   58.4580 C.ar    0  <0>0        0.1385
     25  C8        -2.9280   27.1620   58.1500 C.ar    0  <0>0        0.0366
     26  C7        -2.2200   28.0960   57.4200 C.ar    0  <0>0       -0.0005
     27  O1        -3.0420   25.0210   59.1810 O.3     0  <0>0       -0.4755
     28  C2        -2.3820   23.7840   59.4610 C.3     0  <0>0        0.2055
     29  C1        -3.0940   22.6480   58.7250 C.3     0  <0>0        0.0512
@<TRIPOS>BOND
     1     7     6   ar
     2     7     8   ar
     3     6     5   ar
     4     9     8   ar
     5     9    10   ar
     6     8     3   ar
     7     5     4   ar
     8    10    11   ar
     9     3     4   ar
    10     3     2   ar
    11    11     2   ar
    12    11    12    1
    13     2     1    1
    14    12    20    1
    15    12    13    1
    16     1    21    1
    17     1    14    1
    18    13    14    2
    19    13    19    1
    20    21    22   ar
    21    21    26   ar
    22    14    15    1
    23    22    23   ar
    24    26    25   ar
    25    19    18    1
    26    15    16    2
    27    15    17    1
    28    23    24   ar
    29    18    17    1
    30    25    24   ar
    31    24    27    1
    32    29    28    1
    33    27    28    1
