@<TRIPOS>MOLECULE
ZINC58775207_replica-1.pdb
 33 35 0 0 0
SMALL
GASTEIGER

@<TRIPOS>ATOM
      1  N1         1.3560   33.0340   58.2000 N.am    0  <0>0       -0.2972
      2  C16        0.9470   32.1410   57.2760 C.2     0  <0>0        0.2430
      3  O2         1.2200   30.9660   57.4050 O.2     0  <0>0       -0.2732
      4  H16        1.1380   33.9740   58.0960 H       0  <0>0        0.1500
      5  C9         2.1300   32.5850   59.3600 C.3     0  <0>0        0.1169
      6  C6         3.2580   33.5500   59.6140 C.ar    0  <0>0       -0.0001
      7  C5         4.2310   33.2440   60.5480 C.ar    0  <0>0        0.0008
      8  C4         5.2670   34.1260   60.7840 C.ar    0  <0>0        0.0366
      9  C3         5.3320   35.3210   60.0810 C.ar    0  <0>0        0.1385
     10  C8         4.3530   35.6280   59.1490 C.ar    0  <0>0        0.0366
     11  C7         3.3210   34.7400   58.9140 C.ar    0  <0>0        0.0008
     12  O1         6.3510   36.1910   60.3110 O.3     0  <0>0       -0.4755
     13  C2         6.0820   37.5770   60.0910 C.3     0  <0>0        0.2055
     14  C1         7.2910   38.2310   59.4180 C.3     0  <0>0        0.0512
     15  C10        1.2340   32.5300   60.5710 C.ar    0  <0>0       -0.0003
     16  C15        1.0250   31.3300   61.2220 C.ar    0  <0>0       -0.0024
     17  C14        0.2070   31.2800   62.3360 C.ar    0  <0>0       -0.0003
     18  C13       -0.4100   32.4310   62.7920 C.ar    0  <0>0       -0.0000
     19  C12       -0.2070   33.6300   62.1360 C.ar    0  <0>0       -0.0003
     20  C11        0.6160   33.6810   61.0250 C.ar    0  <0>0       -0.0024
     21  C17        0.1510   32.6030   56.0830 C.3     0  <0>0        0.1759
     22  N2        -0.0590   31.4760   55.1710 N.am    0  <0>0       -0.2931
     23  C18       -1.2670   30.8810   55.1030 C.2     0  <0>0        0.2463
     24  O3        -2.1820   31.2810   55.7990 O.2     0  <0>0       -0.2701
     25  H19        0.6690   31.1570   54.6160 H       0  <0>0        0.1502
     26  C19       -1.4790   29.7540   54.1920 C.2     0  <0>0        0.0577
     27  C20       -0.4920   28.8590   53.9850 C.2     0  <0>0        0.0047
     28  C21       -0.7050   27.7270   53.0690 C.ar    0  <0>0        0.0001
     29  C26       -0.1360   26.4810   53.3470 C.ar    0  <0>0        0.0000
     30  C25       -0.3450   25.4240   52.4860 C.ar    0  <0>0        0.0000
     31  C24       -1.1080   25.5970   51.3450 C.ar    0  <0>0        0.0000
     32  C23       -1.6690   26.8290   51.0590 C.ar    0  <0>0        0.0000
     33  C22       -1.4740   27.8950   51.9130 C.ar    0  <0>0        0.0000
@<TRIPOS>BOND
     1    32    31   ar
     2    32    33   ar
     3    31    30   ar
     4    33    28   ar
     5    30    29   ar
     6    28    29   ar
     7    28    27    1
     8    27    26    2
     9    26    23    1
    10    25    22    1
    11    23    22   am
    12    23    24    2
    13    22    21    1
    14    21     2    1
    15     2     3    2
    16     2     1   am
    17     4     1    1
    18     1     5    1
    19    11    10   ar
    20    11     6   ar
    21    10     9   ar
    22     5     6    1
    23     5    15    1
    24    14    13    1
    25     6     7   ar
    26     9    12    1
    27     9     8   ar
    28    13    12    1
    29     7     8   ar
    30    15    20   ar
    31    15    16   ar
    32    20    19   ar
    33    16    17   ar
    34    19    18   ar
    35    17    18   ar
