@<TRIPOS>MOLECULE
ZINC35840259_replica-1.pdb
 28 31 0 0 0
SMALL
GASTEIGER

@<TRIPOS>ATOM
      1  C8         0.0310   30.7060   56.6030 C.ar    0  <0>0        0.1974
      2  N1        -0.4800   29.8100   57.4170 N.ar    0  <0>0       -0.1217
      3  N2        -0.1820   30.0940   58.6330 N.ar    0  <0>0       -0.1247
      4  C9         0.5410   31.1920   58.6750 C.ar    0  <0>0        0.2055
      5  N3         0.7040   31.6170   57.3720 N.ar    0  <0>0       -0.2665
      6  S1        -0.1160   30.7280   54.8460 S.3     0  <0>0       -0.0704
      7  C7        -1.6180   29.7650   54.5200 C.3     0  <0>0        0.0959
      8  C4        -1.3060   28.6650   53.5380 C.ar    0  <0>0        0.0440
      9  C3        -0.4910   27.6110   53.9140 C.ar    0  <0>0        0.1391
     10  C2        -0.2050   26.6010   53.0120 C.ar    0  <0>0        0.0295
     11  F2         0.0250   27.5690   55.1620 F       0  <0>0       -0.2044
     12  C1        -0.7340   26.6440   51.7360 C.ar    0  <0>0        0.0046
     13  C6        -1.5490   27.6950   51.3590 C.ar    0  <0>0        0.0295
     14  C5        -1.8350   28.7070   52.2600 C.ar    0  <0>0        0.1391
     15  F1        -2.6310   29.7340   51.8910 F       0  <0>0       -0.2044
     16  C10        1.4090   32.7440   56.9300 C.ar    0  <0>0        0.0682
     17  C15        2.6940   32.6050   56.4210 C.ar    0  <0>0        0.0299
     18  C14        3.3850   33.7180   55.9790 C.ar    0  <0>0        0.0696
     19  C13        2.8020   34.9710   56.0550 C.ar    0  <0>0        0.0683
     20 Cl          4.9880   33.5450   55.3370 Cl      0  <0>0       -0.0813
     21  C12        1.5240   35.1130   56.5670 C.ar    0  <0>0        0.0137
     22 Cl          3.6740   36.3680   55.5070 Cl      0  <0>0       -0.0814
     23  C11        0.8270   34.0030   57.0040 C.ar    0  <0>0        0.0185
     24  C16        1.0780   31.8420   59.8800 C.ar    0  <0>0        0.1815
     25  O1         2.3820   31.9870   60.1870 O.2     0  <0>0       -0.4473
     26  C19        2.4950   32.6320   61.3600 C.ar    0  <0>0        0.1798
     27  C18        1.2600   32.9030   61.8260 C.ar    0  <0>0        0.0439
     28  C17        0.3430   32.4000   60.8830 C.ar    0  <0>0        0.0439
@<TRIPOS>BOND
     1    13    12   ar
     2    13    14   ar
     3    12    10   ar
     4    15    14    1
     5    14     8   ar
     6    10     9   ar
     7     8     9   ar
     8     8     7    1
     9     9    11    1
    10     7     6    1
    11     6     1    1
    12    20    18    1
    13    22    19    1
    14    18    19   ar
    15    18    17   ar
    16    19    21   ar
    17    17    16   ar
    18    21    23   ar
    19     1     5   ar
    20     1     2   ar
    21    16    23   ar
    22    16     5    1
    23     5     4   ar
    24     2     3   ar
    25     3     4   ar
    26     4    24    1
    27    24    25   ar
    28    24    28   ar
    29    25    26   ar
    30    28    27   ar
    31    26    27   ar
