@<TRIPOS>MOLECULE
ZINC12655184_replica-1.pdb
 25 26 0 0 0
SMALL
GASTEIGER

@<TRIPOS>ATOM
      1  C7         7.7000   35.5070   59.3890 C.3     0  <0>0        0.0719
      2  C8         6.5530   34.5320   59.5940 C.3     0  <0>0        0.1458
      3  O3         5.8500   34.3090   58.3820 O.3     0  <0>0       -0.3558
      4  C9         5.3350   35.4500   57.7110 C.3     0  <0>0        0.1188
      5  C10        6.3930   36.5390   57.5520 C.3     0  <0>0        0.0454
      6  C11        7.1500   36.8340   58.8440 C.3     0  <0>0        0.0122
      7  C12        6.3210   37.5680   59.8840 C.3     0  <0>0        0.0006
      8  C13        7.4230   35.9830   56.5820 C.2     0  <0>0       -0.0461
      9  C14        8.4470   35.3110   56.9970 C.2     0  <0>0       -0.0347
     10  C15        8.7680   35.0070   58.4280 C.3     0  <0>0        0.0272
     11  C16        9.0000   33.5080   58.5910 C.3     0  <0>0        0.0049
     12  C17        7.2410   36.2320   55.1130 C.3     0  <0>0        0.0261
     13  C6         8.3550   35.7820   60.7470 C.3     0  <0>0        0.2126
     14  O2         9.6990   36.2910   60.5420 O.3     0  <0>0       -0.4346
     15  C5        10.6580   35.8410   61.3710 C.2     0  <0>0        0.4016
     16  N1        11.1790   34.6110   61.1950 N.am    0  <0>0       -0.2707
     17  H14       10.8640   34.0500   60.4690 H       0  <0>0        0.1527
     18  O1        11.0540   36.5440   62.2810 O.2     0  <0>0       -0.2264
     19  C4        12.2220   34.1200   62.0990 C.3     0  <0>0        0.0927
     20  C3        11.7000   32.9060   62.8700 C.3     0  <0>0        0.0214
     21  C2        12.8200   31.8750   63.0170 C.3     0  <0>0        0.0018
     22  C1        14.1470   32.5960   63.2680 C.3     0  <0>0        0.0001
     23  C18        4.0540   35.9600   58.3650 C.3     0  <0>0        0.0299
     24  C19        2.9610   36.0990   57.3040 C.3     0  <0>0        0.0025
     25  C20        3.2860   35.1930   56.1150 C.3     0  <0>0        0.0001
@<TRIPOS>BOND
     1    12     8    1
     2    25    24    1
     3     8     9    2
     4     8     5    1
     5     9    10    1
     6    24    23    1
     7     5     4    1
     8     5     6    1
     9     4    23    1
    10     4     3    1
    11     3     2    1
    12    10    11    1
    13    10     1    1
    14     6     1    1
    15     6     7    1
    16     1     2    1
    17     1    13    1
    18    17    16    1
    19    14    13    1
    20    14    15    1
    21    16    15   am
    22    16    19    1
    23    15    18    2
    24    19    20    1
    25    20    21    1
    26    21    22    1
