@<TRIPOS>MOLECULE
ZINC16195144_replica-1.pdb
 23 24 0 0 0
SMALL
GASTEIGER

@<TRIPOS>ATOM
      1  C9         9.6370   33.1510   60.8910 C.2     0  <0>0        0.0104
      2  C10       10.1550   34.4040   60.7490 C.2     0  <0>0        0.0684
      3  C11       11.2550   34.8200   61.5680 C.1     0  <0>0        0.1004
      4  N1        12.1260   35.1510   62.2170 N.1     0  <0>0       -0.1908
      5  C12        9.5790   35.3350   59.7540 C.ar    0  <0>0        0.0097
      6  C17        9.0860   36.5760   60.1640 C.ar    0  <0>0        0.0014
      7  C16        8.5530   37.4400   59.2440 C.ar    0  <0>0        0.0103
      8  C15        8.5020   37.0790   57.8940 C.ar    0  <0>0        0.0684
      9  C14        8.9950   35.8360   57.4850 C.ar    0  <0>0        0.0103
     10  C18        7.9440   37.9810   56.9310 C.1     0  <0>0        0.1004
     11  C13        9.5330   34.9750   58.4060 C.ar    0  <0>0        0.0014
     12  N2         7.5010   38.6960   56.1680 N.1     0  <0>0       -0.1908
     13  C4         8.4210   32.7750   60.1600 C.ar    0  <0>0        0.0043
     14  C3         8.4710   31.7710   59.1850 C.ar    0  <0>0        0.0401
     15  C2         7.3220   31.4160   58.5060 C.ar    0  <0>0        0.1728
     16  C7         6.1190   32.0650   58.7830 C.ar    0  <0>0        0.1776
     17  C6         6.0690   33.0640   59.7460 C.ar    0  <0>0        0.0670
     18  C5         7.2090   33.4200   60.4340 C.ar    0  <0>0        0.0090
     19  I1         4.2560   34.0300   60.1560 I       0  <0>0       -0.0393
     20  O1         7.3660   30.4380   57.5620 O.3     0  <0>0       -0.4684
     21  C1         7.2580   29.0890   58.0190 C.3     0  <0>0        0.2526
     22  O2         4.9920   31.7170   58.1080 O.3     0  <0>0       -0.4679
     23  C8         4.7410   32.3910   56.8730 C.3     0  <0>0        0.2526
@<TRIPOS>BOND
     1    12    10    3
     2    23    22    1
     3    10     8    1
     4     9     8   ar
     5     9    11   ar
     6    20    21    1
     7    20    15    1
     8     8     7   ar
     9    22    16    1
    10    11     5   ar
    11    15    16   ar
    12    15    14   ar
    13    16    17   ar
    14    14    13   ar
    15     7     6   ar
    16    17    19    1
    17    17    18   ar
    18     5     6   ar
    19     5     2    1
    20    13    18   ar
    21    13     1    1
    22     2     1    2
    23     2     3    1
    24     3     4    3
