@<TRIPOS>MOLECULE
ZINC02412122_replica-1.pdb
 31 34 0 0 0
SMALL
GASTEIGER

@<TRIPOS>ATOM
      1  C5         8.5850   35.9490   59.1560 C.2     0  <0>0        0.1046
      2  C6         8.2940   36.8400   58.1340 C.2     0  <0>0       -0.0039
      3  C7         7.2510   36.5760   57.2720 C.2     0  <0>0       -0.0340
      4  C8         6.4900   35.3990   57.4440 C.3     0  <0>0        0.1135
      5  C9         5.3430   34.9390   56.6400 C.2     0  <0>0        0.0683
      6  C10        4.7700   33.7230   57.0310 C.3     0  <0>0        0.1948
      7  C11        3.6860   33.1920   56.3460 C.2     0  <0>0        0.3096
      8  N1         3.2020   33.8700   55.3040 N.2     0  <0>0       -0.0400
      9  C12        3.7540   35.0160   54.9490 C.3     0  <0>0        0.3909
     10  N2         4.7780   35.5440   55.5720 N.2     0  <0>0       -0.2252
     11  S1         5.7260   33.2070   58.4300 S.3     0  <0>0       -0.0690
     12  C20        6.8690   34.5640   58.5100 C.2     0  <0>0        0.1434
     13  N4         7.8720   34.8510   59.3110 N.2     0  <0>0       -0.4040
     14  C21        7.1280   37.6810   56.2490 C.3     0  <0>0        0.0229
     15  C22        7.9300   38.8630   56.8370 C.3     0  <0>0        0.0091
     16  C23        8.9510   38.1490   57.7480 C.3     0  <0>0        0.0283
     17  N3         3.1200   31.9870   56.7330 N.pl3   0  <0>0       -0.2217
     18  H11        3.6880   31.2600   57.0350 H       0  <0>0        0.2919
     19  C13        1.6670   31.8120   56.6910 C.3     0  <0>0        0.1966
     20  C14        1.0680   32.1820   58.0490 C.3     0  <0>0        0.0279
     21  C15       -0.0850   33.1680   57.8450 C.3     0  <0>0       -0.0731
     22  N5         0.1960   34.3960   58.6200 N.4     0  <0>0        0.3870
     23  H34       -0.6940   34.8160   58.9110 H       0  <0>0       -0.0797
     24  C16        0.9890   34.0650   59.8210 C.3     0  <0>0       -0.0774
     25  C17        0.1090   34.0950   61.0720 C.3     0  <0>0       -0.0250
     26  C18        0.9310   35.3640   57.7790 C.3     0  <0>0       -0.0774
     27  C19        2.1460   35.8680   58.5590 C.3     0  <0>0       -0.0250
     28  C4         9.7260   36.2400   60.0970 C.3     0  <0>0        0.0586
     29  C3        10.6090   34.9980   60.2270 C.3     0  <0>0        0.0074
     30  C2        11.2500   34.9700   61.6160 C.3     0  <0>0        0.0004
     31  C1        11.2000   36.3710   62.2290 C.3     0  <0>0        0.0000
@<TRIPOS>BOND
     1     9     8    1
     2     9    10    1
     3     8     7    2
     4    10     5    2
     5    14    15    1
     6    14     3    1
     7     7    17    1
     8     7     6    1
     9     5     6    1
    10     5     4    1
    11    19    17    1
    12    19    20    1
    13    17    18    1
    14    15    16    1
    15     6    11    1
    16     3     4    1
    17     3     2    2
    18     4    12    1
    19    16     2    1
    20    26    27    1
    21    26    22    1
    22    21    20    1
    23    21    22    1
    24     2     1    1
    25    11    12    1
    26    12    13    2
    27    22    23    1
    28    22    24    1
    29     1    13    2
    30     1    28    1
    31    24    25    1
    32    28    29    1
    33    29    30    1
    34    30    31    1
