@<TRIPOS>MOLECULE
ZINC61093393_replica-1.pdb
 20 21 0 0 0
SMALL
GASTEIGER

@<TRIPOS>ATOM
      1  N1         9.0430   35.4940   59.9620 N.pl3   0  <0>0       -0.3322
      2  H12        8.3450   35.1330   60.5320 H       0  <0>0        0.1468
      3  C2        10.3730   35.7630   60.5130 C.3     0  <0>0        0.0696
      4  C1        10.2510   36.7390   61.6860 C.3     0  <0>0        0.0212
      5  C3        10.9970   34.4540   61.0010 C.3     0  <0>0        0.0274
      6  C4        12.0590   34.7590   62.0600 C.3     0  <0>0        0.0662
      7  C5        12.5800   33.4670   62.6360 C.ar    0  <0>0        0.1230
      8  O1        11.8910   32.3190   62.7370 O.2     0  <0>0       -0.4547
      9  C8        12.6700   31.3780   63.2950 C.ar    0  <0>0        0.1791
     10  C7        13.8690   31.9240   63.5650 C.ar    0  <0>0        0.0434
     11  C6        13.8110   33.2710   63.1400 C.ar    0  <0>0        0.0362
     12  C9         8.7770   35.7570   58.6140 C.ar    0  <0>0        0.0748
     13  C14        8.6990   34.7110   57.7020 C.ar    0  <0>0        0.1555
     14  C13        8.4290   34.9730   56.3710 C.ar    0  <0>0        0.0628
     15  F1         8.8800   33.4380   58.1170 F       0  <0>0       -0.2028
     16  C12        8.2490   36.2770   55.9430 C.ar    0  <0>0        0.1697
     17  C11        8.3310   37.3230   56.8510 C.ar    0  <0>0        0.1688
     18  F2         7.9920   36.5310   54.6420 F       0  <0>0       -0.2017
     19  C10        8.5940   37.0640   58.1830 C.ar    0  <0>0        0.0485
     20  F3         8.1550   38.5950   56.4320 F       0  <0>0       -0.2018
@<TRIPOS>BOND
     1    18    16    1
     2    16    14   ar
     3    16    17   ar
     4    14    13   ar
     5    20    17    1
     6    17    19   ar
     7    13    15    1
     8    13    12   ar
     9    19    12   ar
    10    12     1    1
    11     1     3    1
    12     1     2    1
    13     3     5    1
    14     3     4    1
    15     5     6    1
    16     6     7    1
    17     7     8   ar
    18     7    11   ar
    19     8     9   ar
    20    11    10   ar
    21     9    10   ar
