@<TRIPOS>MOLECULE
ZINC35254068_replica-1.pdb
 22 23 0 0 0
SMALL
GASTEIGER

@<TRIPOS>ATOM
      1  C9        10.2060   36.3120   61.0590 C.ar    0  <0>0       -0.0063
      2  C10        9.9080   35.0370   60.6170 C.ar    0  <0>0       -0.0024
      3  C11       10.5400   33.9440   61.1760 C.ar    0  <0>0        0.0061
      4  C12       11.4800   34.1280   62.1830 C.ar    0  <0>0        0.0327
      5  C13       11.7780   35.4100   62.6250 C.ar    0  <0>0        0.0061
      6  C14       11.1450   36.4990   62.0580 C.ar    0  <0>0       -0.0024
      7  C8         9.5130   37.5020   60.4480 C.3     0  <0>0        0.0956
      8  N1         8.1210   37.5510   60.9170 N.3     0  <0>0       -0.2945
      9  H10        7.9220   38.4310   61.3670 H       0  <0>0        0.1235
     10  C2         7.1840   37.3010   59.8130 C.3     0  <0>0        0.0592
     11  C1         5.7510   37.5180   60.3010 C.3     0  <0>0        0.0175
     12  C3         7.4830   38.2650   58.6630 C.3     0  <0>0        0.0486
     13  C4         7.6320   37.4880   57.3810 C.ar    0  <0>0        0.0086
     14  S1         7.0910   37.9220   55.7350 S.2     0  <0>0       -0.0907
     15  C7         7.6770   36.4640   54.8860 C.ar    0  <0>0        0.0351
     16  C6         8.2300   35.7530   55.8990 C.ar    0  <0>0        0.0072
     17  C5         8.2070   36.2780   57.1770 C.ar    0  <0>0        0.0027
     18  S2        12.2900   32.7360   62.9000 S.3     0  <0>0       -0.0144
     19  C15       14.0220   33.2580   63.0330 C.3     0  <0>0        0.4477
     20  F1        14.8300   32.1380   63.2650 F       0  <0>0       -0.1600
     21  F2        14.4140   33.8770   61.8420 F       0  <0>0       -0.1600
     22  F3        14.1580   34.1580   64.0950 F       0  <0>0       -0.1600
@<TRIPOS>BOND
     1    15    14   ar
     2    15    16   ar
     3    14    13   ar
     4    16    17   ar
     5    17    13   ar
     6    13    12    1
     7    12    10    1
     8    10    11    1
     9    10     8    1
    10     7     8    1
    11     7     1    1
    12     2     1   ar
    13     2     3   ar
    14     8     9    1
    15     1     6   ar
    16     3     4   ar
    17    21    19    1
    18     6     5   ar
    19     4     5   ar
    20     4    18    1
    21    18    19    1
    22    19    20    1
    23    19    22    1
