@<TRIPOS>MOLECULE
ZINC00504435_replica-1.pdb
 28 31 0 0 0
SMALL
GASTEIGER

@<TRIPOS>ATOM
      1  C12        5.6970   34.5380   54.1410 C.3     0  <0>0        0.1735
      2  C11        5.9290   35.8530   54.8860 C.3     0  <0>0        0.2361
      3  O1         7.3320   36.1060   54.9820 O.3     0  <0>0       -0.4728
      4  C6         7.8200   36.4210   56.2100 C.ar    0  <0>0        0.1387
      5  C5         8.5400   35.4930   56.9080 C.ar    0  <0>0        0.0369
      6  C4         9.0440   35.8170   58.1770 C.ar    0  <0>0        0.0030
      7  C3         9.7900   34.8890   58.9240 C.ar    0  <0>0        0.0001
      8  C9         8.7990   37.1050   58.7170 C.ar    0  <0>0        0.0002
      9  C2        10.2640   35.2370   60.1510 C.ar    0  <0>0        0.0000
     10  C1        10.0220   36.5040   60.6810 C.ar    0  <0>0        0.0000
     11  C10        9.3060   37.4290   59.9860 C.ar    0  <0>0        0.0000
     12  C8         8.0540   38.0360   57.9700 C.ar    0  <0>0        0.0031
     13  C7         7.5840   37.6930   56.7410 C.ar    0  <0>0        0.0369
     14  C13        5.6830   33.3800   55.1420 C.3     0  <0>0        0.1206
     15  N1         5.0370   33.8160   56.3830 N.pl3   0  <0>0       -0.3306
     16  H13        4.1820   34.2710   56.3510 H       0  <0>0        0.1469
     17  C14        5.6530   33.5770   57.6090 C.ar    0  <0>0        0.0447
     18  C19        5.6440   34.5660   58.6170 C.ar    0  <0>0        0.0131
     19  C18        6.2800   34.3020   59.8540 C.ar    0  <0>0        0.0012
     20  C20        5.0200   35.8060   58.4130 C.ar    0  <0>0        0.0012
     21  C17        6.9010   33.0580   60.0620 C.ar    0  <0>0        0.0001
     22  C23        6.2670   35.2850   60.8580 C.ar    0  <0>0        0.0000
     23  C16        6.8950   32.1220   59.0730 C.ar    0  <0>0        0.0013
     24  C15        6.2770   32.3710   57.8520 C.ar    0  <0>0        0.0143
     25  C22        5.6510   36.4770   60.6260 C.ar    0  <0>0        0.0000
     26  C21        5.0300   36.7370   59.4060 C.ar    0  <0>0        0.0000
     27  O2         4.4440   34.5920   53.4570 O.3     0  <0>0       -0.3791
     28  H21        4.4210   35.2250   52.7260 H       0  <0>0        0.2106
@<TRIPOS>BOND
     1    28    27    1
     2    27     1    1
     3     1     2    1
     4     1    14    1
     5     2     3    1
     6     3     4    1
     7    14    15    1
     8     4    13   ar
     9     4     5   ar
    10    16    15    1
    11    15    17    1
    12    13    12   ar
    13     5     6   ar
    14    17    24   ar
    15    17    18   ar
    16    24    23   ar
    17    12     8   ar
    18     6     8   ar
    19     6     7   ar
    20    20    18   ar
    21    20    26   ar
    22    18    19   ar
    23     8    11   ar
    24     7     9   ar
    25    23    21   ar
    26    26    25   ar
    27    19    21   ar
    28    19    22   ar
    29    11    10   ar
    30     9    10   ar
    31    25    22   ar
