@<TRIPOS>MOLECULE
ZINC51597844_replica-1.pdb
 19 19 0 0 0
SMALL
GASTEIGER

@<TRIPOS>ATOM
      1  C1        -0.4720   24.7750   51.4540 C.3     0  <0>0        0.0311
      2  C2        -0.7350   26.1300   52.0580 C.ar    0  <0>0       -0.0188
      3  C3        -1.4700   27.0670   51.3510 C.ar    0  <0>0       -0.0040
      4  C4        -1.7170   28.3100   51.8920 C.ar    0  <0>0        0.0044
      5  C5        -1.2240   28.6270   53.1610 C.ar    0  <0>0        0.0535
      6  C6        -0.4820   27.6760   53.8730 C.ar    0  <0>0        0.1397
      7  C7        -0.2480   26.4280   53.3150 C.ar    0  <0>0        0.0327
      8  O1         0.0020   27.9720   55.1060 O.3     0  <0>0       -0.4791
      9  C8        -0.6320   27.3390   56.2210 C.3     0  <0>0        0.1660
     10  C9        -1.5880   28.3270   56.8920 C.3     0  <0>0        0.0472
     11  C10        0.4330   26.8950   57.2270 C.3     0  <0>0        0.0435
     12  C11       -0.1750   25.8800   58.1970 C.3     0  <0>0        0.0036
     13  C12       -0.1220   24.4850   57.5710 C.3     0  <0>0        0.0001
     14  C13        0.6210   25.8840   59.5030 C.3     0  <0>0        0.0001
     15  C14       -1.4840   29.9540   53.7470 C.2     0  <0>0        0.0810
     16  S1        -3.0940   30.4920   53.9680 S.2     0  <0>0       -0.0351
     17  N1        -0.4540   30.7430   54.1110 N.am    0  <0>0       -0.3516
     18  H20        0.4580   30.4380   53.9860 H       0  <0>0        0.1428
     19  H21       -0.6250   31.6170   54.4970 H       0  <0>0        0.1428
@<TRIPOS>BOND
     1     3     4   ar
     2     3     2   ar
     3     1     2    1
     4     4     5   ar
     5     2     7   ar
     6     5    15    1
     7     5     6   ar
     8     7     6   ar
     9    15    16    2
    10    15    17    1
    11     6     8    1
    12    18    17    1
    13    17    19    1
    14     8     9    1
    15     9    10    1
    16     9    11    1
    17    11    12    1
    18    13    12    1
    19    12    14    1
