@<TRIPOS>MOLECULE
ZINC33743198_replica-1.pdb
 32 35 0 0 0
SMALL
GASTEIGER

@<TRIPOS>ATOM
      1  C5         5.5600   36.4840   58.3440 C.ar    0  <0>0        0.0372
      2  C6         4.7120   35.7410   57.5880 C.ar    0  <0>0        0.0171
      3  C7         5.3180   35.6700   56.2470 C.ar    0  <0>0        0.0658
      4  C8         6.4800   36.3840   56.3180 C.ar    0  <0>0        0.0418
      5  N1         6.6180   36.8600   57.5720 N.ar    0  <0>0       -0.3297
      6  C17        7.4500   36.6010   55.1860 C.3     0  <0>0        0.0502
      7  C9         7.7440   37.6730   58.0360 C.3     0  <0>0        0.1322
      8  C10        8.7160   36.8020   58.7900 C.ar    0  <0>0        0.0036
      9  C15        9.2920   37.2630   59.9580 C.ar    0  <0>0        0.0378
     10  C14       10.1810   36.4620   60.6570 C.ar    0  <0>0        0.1762
     11  C13       10.4970   35.1930   60.1740 C.ar    0  <0>0        0.1764
     12  O1        10.8710   36.6720   61.8160 O.3     0  <0>0       -0.4346
     13  C12        9.9200   34.7400   58.9990 C.ar    0  <0>0        0.0399
     14  O2        11.3840   34.6090   61.0310 O.3     0  <0>0       -0.4346
     15  C11        9.0350   35.5450   58.3070 C.ar    0  <0>0        0.0009
     16  C16       11.2950   35.3660   62.2520 C.3     0  <0>0        0.4294
     17  C4         5.3660   36.8340   59.7970 C.3     0  <0>0        0.0438
     18  C3         6.2190   35.9050   60.6640 C.3     0  <0>0        0.0062
     19  C2         5.5200   34.5510   60.8000 C.3     0  <0>0        0.0004
     20  C1         6.4420   33.4470   60.2780 C.3     0  <0>0        0.0000
     21  C19        3.4340   35.1280   58.0240 C.ar    0  <0>0        0.0014
     22  C24        2.3200   35.9310   58.2650 C.ar    0  <0>0        0.0023
     23  C23        1.1330   35.3560   58.6710 C.ar    0  <0>0        0.0296
     24  C22        1.0470   33.9840   58.8380 C.ar    0  <0>0        0.1401
     25  C21        2.1520   33.1820   58.6000 C.ar    0  <0>0        0.0296
     26  F1        -0.1180   33.4260   59.2350 F       0  <0>0       -0.2042
     27  C20        3.3410   33.7470   58.1880 C.ar    0  <0>0        0.0023
     28  C18        4.7780   34.9750   55.0690 C.2     0  <0>0        0.2439
     29  O3         5.3160   33.9630   54.6590 O.2     0  <0>0       -0.2703
     30  N2         3.6860   35.4590   54.4420 N.am    0  <0>0       -0.3253
     31  H20        3.2820   34.9390   53.5600 H       0  <0>0        0.1453
     32  H21        3.2000   36.3730   54.8120 H       0  <0>0        0.1453
@<TRIPOS>BOND
     1    31    30    1
     2    30    32    1
     3    30    28   am
     4    29    28    2
     5    28     3    1
     6     6     4    1
     7     3     4   ar
     8     3     2   ar
     9     4     5   ar
    10     5     7    1
    11     5     1   ar
    12     2    21    1
    13     2     1   ar
    14    21    27   ar
    15    21    22   ar
    16     7     8    1
    17    27    25   ar
    18    22    23   ar
    19    15     8   ar
    20    15    13   ar
    21     1    17    1
    22    25    24   ar
    23    23    24   ar
    24     8     9   ar
    25    24    26    1
    26    13    11   ar
    27    17    18    1
    28     9    10   ar
    29    11    10   ar
    30    11    14    1
    31    20    19    1
    32    10    12    1
    33    18    19    1
    34    14    16    1
    35    12    16    1
