@<TRIPOS>MOLECULE
ZINC16617745_replica-1.pdb
 27 30 0 0 0
SMALL
GASTEIGER

@<TRIPOS>ATOM
      1  C1         1.7800   34.9110   56.6490 C.ar    0  <0>0       -0.0003
      2  C2         2.8330   35.6430   56.1320 C.ar    0  <0>0       -0.0003
      3  C3         3.9530   35.8800   56.9040 C.ar    0  <0>0       -0.0026
      4  C4         4.0280   35.3870   58.1980 C.ar    0  <0>0       -0.0019
      5  C5         2.9710   34.6580   58.7160 C.ar    0  <0>0       -0.0241
      6  C6         1.8510   34.4200   57.9380 C.ar    0  <0>0       -0.0045
      7  C7         3.2840   34.2420   60.1380 C.3     0  <0>0        0.0286
      8  C8         4.8110   34.4230   60.2870 C.3     0  <0>0        0.0359
      9  C9         5.1160   35.4940   59.2320 C.3     0  <0>0        0.1466
     10  C10        6.4800   35.2900   58.6250 C.2     0  <0>0        0.2526
     11  O1         6.8810   34.3160   58.0260 O.2     0  <0>0       -0.2723
     12  N1         7.1600   36.4260   58.8930 N.am    0  <0>0       -0.2084
     13  C11        6.4110   37.3000   59.5780 C.2     0  <0>0        0.3105
     14  O2         6.8040   38.3930   59.9340 O.2     0  <0>0       -0.2521
     15  N2         5.1720   36.8290   59.8270 N.am    0  <0>0       -0.2806
     16  H9         4.4600   37.2850   60.3040 H       0  <0>0        0.1516
     17  C12        8.5460   36.6710   58.4860 C.3     0  <0>0        0.1290
     18  C13        9.4800   36.1780   59.5620 C.ar    0  <0>0       -0.0019
     19  C18        9.7670   36.9820   60.6500 C.ar    0  <0>0       -0.0027
     20  C17       10.6210   36.5280   61.6380 C.ar    0  <0>0        0.0036
     21  C16       11.1940   35.2750   61.5350 C.ar    0  <0>0        0.0714
     22  C15       10.9120   34.4730   60.4440 C.ar    0  <0>0        0.0036
     23  C14       10.0550   34.9260   59.4580 C.ar    0  <0>0       -0.0027
     24  C19       12.1280   34.7820   62.6100 C.3     0  <0>0        0.4186
     25  F1        13.4080   34.6070   62.0720 F       0  <0>0       -0.1659
     26  F2        12.1810   35.7200   63.6470 F       0  <0>0       -0.1659
     27  F3        11.6610   33.5610   63.1090 F       0  <0>0       -0.1659
@<TRIPOS>BOND
     1     2     1   ar
     2     2     3   ar
     3     1     6   ar
     4     3     4   ar
     5     6     5   ar
     6    11    10    2
     7     4     5   ar
     8     4     9    1
     9    17    12    1
    10    17    18    1
    11    10    12   am
    12    10     9    1
    13     5     7    1
    14    12    13   am
    15     9    15    1
    16     9     8    1
    17    23    18   ar
    18    23    22   ar
    19    18    19   ar
    20    13    15   am
    21    13    14    2
    22    15    16    1
    23     7     8    1
    24    22    21   ar
    25    19    20   ar
    26    21    20   ar
    27    21    24    1
    28    25    24    1
    29    24    27    1
    30    24    26    1
