@<TRIPOS>MOLECULE
ZINC03365553_replica-1.pdb
 32 35 0 0 0
SMALL
GASTEIGER

@<TRIPOS>ATOM
      1  O2         3.3590   33.5170   55.3960 O.3     0  <0>0       -0.4353
      2  C12        2.7140   33.1860   56.6530 C.3     0  <0>0        0.2927
      3  C11        1.4140   32.4760   56.3800 C.2     0  <0>0        0.2671
      4  N1         1.4200   31.1920   55.9710 N.am    0  <0>0       -0.3029
      5  H15        2.2620   30.7250   55.8530 H       0  <0>0        0.1495
      6  O1         0.3610   33.0610   56.5280 O.2     0  <0>0       -0.2711
      7  C2         0.1560   30.5020   55.7050 C.3     0  <0>0        0.0721
      8  C1        -0.1700   29.5660   56.8710 C.3     0  <0>0        0.0213
      9  C3         0.2820   29.6850   54.4170 C.3     0  <0>0        0.0242
     10  C4        -1.1140   29.3490   53.8890 C.3     0  <0>0        0.0280
     11  C5        -1.0460   28.0980   53.0500 C.ar    0  <0>0       -0.0221
     12  C10       -0.3380   27.0000   53.5020 C.ar    0  <0>0       -0.0043
     13  C9        -0.2750   25.8540   52.7330 C.ar    0  <0>0       -0.0003
     14  C8        -0.9200   25.8050   51.5110 C.ar    0  <0>0       -0.0000
     15  C7        -1.6270   26.9030   51.0590 C.ar    0  <0>0       -0.0003
     16  C6        -1.6910   28.0500   51.8280 C.ar    0  <0>0       -0.0043
     17  C13        4.2170   34.5560   55.4020 C.2     0  <0>0        0.3417
     18  O3         3.9020   35.6070   54.8800 O.2     0  <0>0       -0.2449
     19  C14        5.5390   34.4180   56.0420 C.ar    0  <0>0        0.0757
     20  C19        5.8880   35.2490   57.1030 C.ar    0  <0>0        0.0076
     21  C18        7.1390   35.1090   57.6990 C.ar    0  <0>0        0.0129
     22  C17        8.0380   34.1310   57.2250 C.ar    0  <0>0        0.0561
     23  C20        7.8250   35.7810   58.8000 C.ar    0  <0>0       -0.0094
     24  C16        7.6670   33.3090   56.1630 C.ar    0  <0>0        0.0172
     25  N2         9.1770   34.2210   57.9900 N.ar    0  <0>0       -0.3567
     26  C15        6.4400   33.4460   55.5850 C.ar    0  <0>0        0.0079
     27  C21        9.0370   35.2100   58.9240 C.ar    0  <0>0        0.0295
     28  H2         9.9640   33.6650   57.8840 H       0  <0>0        0.1656
     29  C22       10.0580   35.6290   59.9580 C.3     0  <0>0        0.0432
     30  C23        9.6670   37.0090   60.4970 C.3     0  <0>0        0.0066
     31  C24        8.1940   36.9970   60.9140 C.3     0  <0>0        0.0051
     32  C25        7.3130   36.9060   59.6610 C.3     0  <0>0        0.0275
@<TRIPOS>BOND
     1    15    14   ar
     2    15    16   ar
     3    14    13   ar
     4    16    11   ar
     5    13    12   ar
     6    11    12   ar
     7    11    10    1
     8    10     9    1
     9     9     7    1
    10    18    17    2
    11     1    17    1
    12     1     2    1
    13    17    19    1
    14    26    19   ar
    15    26    24   ar
    16     7     4    1
    17     7     8    1
    18     5     4    1
    19     4     3   am
    20    19    20   ar
    21    24    22   ar
    22     3     6    2
    23     3     2    1
    24    20    21   ar
    25    22    21   ar
    26    22    25   ar
    27    21    23   ar
    28    28    25    1
    29    25    27   ar
    30    23    27   ar
    31    23    32    1
    32    27    29    1
    33    32    31    1
    34    29    30    1
    35    30    31    1
