@<TRIPOS>MOLECULE
ZINC19720606_replica-1.pdb
 22 24 0 0 0
SMALL
GASTEIGER

@<TRIPOS>ATOM
      1  C8         6.7110   36.1030   55.4170 C.3     0  <0>0        0.0736
      2  N1         6.5470   34.7780   56.0260 N.3     0  <0>0       -0.2934
      3  H8         7.3940   34.5940   56.7040 H       0  <0>0        0.1236
      4  C7         5.2900   34.6980   56.7830 C.3     0  <0>0        0.0961
      5  C5         5.5350   35.1160   58.2110 C.ar    0  <0>0       -0.0001
      6  C4         6.0560   34.2090   59.1170 C.ar    0  <0>0        0.0319
      7  C3         6.2810   34.5920   60.4260 C.ar    0  <0>0        0.0064
      8 Br          6.4600   32.4460   58.5630 Br      0  <0>0       -0.0493
      9  C2         5.9860   35.8820   60.8290 C.ar    0  <0>0        0.0005
     10  C1         5.4660   36.7870   59.9230 C.ar    0  <0>0       -0.0002
     11  C6         5.2450   36.4050   58.6130 C.ar    0  <0>0       -0.0024
     12  C9         8.1650   36.5560   55.5650 C.3     0  <0>0        0.0450
     13  C10        8.3480   37.2330   56.8990 C.ar    0  <0>0       -0.0024
     14  C13        8.9080   36.6320   58.1120 C.ar    0  <0>0        0.0131
     15  C12        8.8780   37.6390   59.0940 C.ar    0  <0>0        0.0563
     16  C14        9.4150   35.3700   58.4240 C.ar    0  <0>0        0.0012
     17  N2         8.3390   38.7620   58.5080 N.ar    0  <0>0       -0.3523
     18  C17        9.3530   37.3610   60.3710 C.ar    0  <0>0        0.0170
     19  C11        8.0290   38.5020   57.2010 C.ar    0  <0>0        0.0681
     20  H1         8.1440   39.7590   58.9310 H       0  <0>0        0.1660
     21  C16        9.8460   36.1050   60.6580 C.ar    0  <0>0        0.0015
     22  C15        9.8740   35.1160   59.6860 C.ar    0  <0>0        0.0001
@<TRIPOS>BOND
     1     1    12    1
     2     1     2    1
     3    12    13    1
     4     2     3    1
     5     2     4    1
     6     4     5    1
     7    13    19   ar
     8    13    14   ar
     9    19    17   ar
    10    14    16   ar
    11    14    15   ar
    12     5    11   ar
    13     5     6   ar
    14    16    22   ar
    15    17    20    1
    16    17    15   ar
    17     8     6    1
    18    11    10   ar
    19    15    18   ar
    20     6     7   ar
    21    22    21   ar
    22    10     9   ar
    23    18    21   ar
    24     7     9   ar
