@<TRIPOS>MOLECULE
ZINC08780594_replica-1.pdb
 29 32 0 0 0
SMALL
GASTEIGER

@<TRIPOS>ATOM
      1  C1         7.3640   36.8130   55.0440 C.3     0  <0>0        0.0626
      2  C2         7.2440   35.7190   56.0740 C.2     0  <0>0        0.1004
      3  C3         6.4070   34.6930   55.8600 C.3     0  <0>0        0.1438
      4  C4         6.2590   33.5860   56.8610 C.3     0  <0>0        0.0561
      5  C5         7.4100   33.5760   57.8360 C.3     0  <0>0        0.1109
      6  C6         8.2110   34.6550   57.9680 C.2     0  <0>0        0.0931
      7  N1         7.9890   35.7810   57.2230 N.2     0  <0>0       -0.4176
      8  C7         9.3680   34.6500   58.9370 C.3     0  <0>0        0.0596
      9  C8         9.0370   33.7490   60.1280 C.3     0  <0>0        0.0363
     10  C9         8.7410   32.3390   59.6040 C.3     0  <0>0        0.0697
     11  C10        7.6230   32.4160   58.5990 C.2     0  <0>0        0.1572
     12  O1         6.8930   31.4570   58.4450 O.2     0  <0>0       -0.2956
     13  C24        5.6440   34.6490   54.6490 C.1     0  <0>0        0.0793
     14  N2         5.0380   34.6140   53.6880 N.1     0  <0>0       -0.1955
     15  C18        4.9720   33.7840   57.6190 C.ar    0  <0>0       -0.0202
     16  C23        4.8460   34.8390   58.5040 C.ar    0  <0>0       -0.0037
     17  C22        3.6650   35.0210   59.1990 C.ar    0  <0>0        0.0064
     18  C21        2.6080   34.1490   59.0080 C.ar    0  <0>0        0.0345
     19  C20        2.7350   33.0930   58.1220 C.ar    0  <0>0        0.0064
     20 Br          0.9930   34.3970   59.9580 Br      0  <0>0       -0.0490
     21  C19        3.9140   32.9150   57.4240 C.ar    0  <0>0       -0.0037
     22  C11       10.2120   33.7020   61.0700 C.ar    0  <0>0       -0.0215
     23  C16       11.0690   34.7840   61.1580 C.ar    0  <0>0       -0.0011
     24  C15       12.1470   34.7440   62.0210 C.ar    0  <0>0        0.0366
     25  C14       12.3690   33.6170   62.8000 C.ar    0  <0>0        0.1387
     26  C13       11.5070   32.5330   62.7100 C.ar    0  <0>0        0.0366
     27  C12       10.4270   32.5810   61.8500 C.ar    0  <0>0       -0.0011
     28  O2        13.4290   33.5750   63.6490 O.3     0  <0>0       -0.4714
     29  C17       14.3150   32.4610   63.5260 C.3     0  <0>0        0.2525
@<TRIPOS>BOND
     1    14    13    3
     2    13     3    1
     3     1     2    1
     4     3     2    1
     5     3     4    1
     6     2     7    2
     7     4    15    1
     8     4     5    1
     9     7     6    2
    10    21    15   ar
    11    21    19   ar
    12    15    16   ar
    13     5     6    1
    14     5    11    1
    15     6     8    1
    16    19    18   ar
    17    12    11    2
    18    16    17   ar
    19    11    10    1
    20     8     9    1
    21    18    17   ar
    22    18    20    1
    23    10     9    1
    24     9    22    1
    25    22    23   ar
    26    22    27   ar
    27    23    24   ar
    28    27    26   ar
    29    24    25   ar
    30    26    25   ar
    31    25    28    1
    32    29    28    1
