@<TRIPOS>MOLECULE
ZINC19888254_replica-1.pdb
 27 30 0 0 0
SMALL
GASTEIGER

@<TRIPOS>ATOM
      1  C10        6.5310   37.3370   59.2430 C.3     0  <0>0        0.0923
      2  C11        7.4620   37.0660   58.0730 C.3     0  <0>0        0.0262
      3  C12        6.8110   36.7080   56.7300 C.3     0  <0>0        0.0023
      4  C13        7.8830   35.8210   56.0960 C.3     0  <0>0        0.0004
      5  C14        8.6230   35.2540   57.0420 C.3     0  <0>0        0.0045
      6  C15        8.1020   35.6760   58.3670 C.3     0  <0>0        0.0255
      7  C16        8.9820   35.8180   59.5460 C.ar    0  <0>0       -0.0071
      8  C17       10.1560   35.1090   59.6830 C.ar    0  <0>0        0.0266
      9  C18       10.9350   35.2600   60.8180 C.ar    0  <0>0        0.1399
     10  C19       10.5340   36.1280   61.8200 C.ar    0  <0>0        0.0309
     11  C20        9.3660   36.8480   61.6860 C.ar    0  <0>0        0.0163
     12  C21        8.5790   36.7050   60.5500 C.ar    0  <0>0        0.0409
     13  N1         7.4060   37.4630   60.4290 N.pl3   0  <0>0       -0.3308
     14  F1        12.0860   34.5640   60.9450 F       0  <0>0       -0.2042
     15  H22        7.1400   38.1620   61.2360 H       0  <0>0        0.1471
     16  C4         5.5740   36.1880   59.4220 C.ar    0  <0>0        0.0017
     17  C3         5.8100   35.2390   60.3990 C.ar    0  <0>0        0.0376
     18  C2         4.9310   34.1810   60.5690 C.ar    0  <0>0        0.1752
     19  C7         3.8100   34.0740   59.7530 C.ar    0  <0>0        0.2060
     20  C6         3.5750   35.0290   58.7730 C.ar    0  <0>0        0.1752
     21  C5         4.4570   36.0880   58.6140 C.ar    0  <0>0        0.0376
     22  O1         5.1640   33.2480   61.5310 O.3     0  <0>0       -0.4683
     23  C1         6.0600   32.1850   61.2010 C.3     0  <0>0        0.2526
     24  O2         2.9440   33.0360   59.9170 O.3     0  <0>0       -0.4654
     25  C8         1.8840   33.2170   60.8580 C.3     0  <0>0        0.2528
     26  O3         2.4800   34.9290   57.9720 O.3     0  <0>0       -0.4683
     27  C9         2.1040   36.0960   57.2390 C.3     0  <0>0        0.2526
@<TRIPOS>BOND
     1     4     3    1
     2     4     5    1
     3     3     2    1
     4     5     6    1
     5    27    26    1
     6    26    20    1
     7     2     6    1
     8     2     1    1
     9     6     7    1
    10    21    20   ar
    11    21    16   ar
    12    20    19   ar
    13     1    16    1
    14     1    13    1
    15    16    17   ar
    16     7     8   ar
    17     7    12   ar
    18     8     9   ar
    19    19    24    1
    20    19    18   ar
    21    24    25    1
    22    17    18   ar
    23    13    12    1
    24    13    15    1
    25    12    11   ar
    26    18    22    1
    27     9    14    1
    28     9    10   ar
    29    23    22    1
    30    11    10   ar
