@<TRIPOS>MOLECULE
ZINC11886586_replica-1.pdb
 25 26 0 0 0
SMALL
GASTEIGER

@<TRIPOS>ATOM
      1  O2         1.0170   32.2240   57.1440 O.3     0  <0>0       -0.4683
      2  C10       -0.1650   31.8530   56.4320 C.3     0  <0>0        0.2526
      3  C9         0.2010   30.8870   55.3040 C.3     0  <0>0        0.2525
      4  O1        -0.9900   30.3160   54.7600 O.3     0  <0>0       -0.4714
      5  C4        -0.8600   29.1420   54.0870 C.ar    0  <0>0        0.1382
      6  C3        -1.4440   28.9910   52.8380 C.ar    0  <0>0        0.0335
      7  C2        -1.3060   27.7990   52.1530 C.ar    0  <0>0       -0.0086
      8  C1        -1.9340   27.6350   50.7920 C.3     0  <0>0        0.0320
      9  C7        -0.5930   26.7550   52.7150 C.ar    0  <0>0        0.0499
     10  C6        -0.0150   26.9030   53.9640 C.ar    0  <0>0       -0.0086
     11 Cl         -0.4210   25.2580   51.8520 Cl      0  <0>0       -0.0829
     12  C5        -0.1510   28.0930   54.6520 C.ar    0  <0>0        0.0335
     13  C8         0.7610   25.7640   54.5730 C.3     0  <0>0        0.0320
     14  C11        0.8580   32.6400   58.4280 C.ar    0  <0>0        0.1739
     15  C16        0.8080   31.7120   59.4620 C.ar    0  <0>0        0.1724
     16  C15        0.6460   32.1410   60.7700 C.ar    0  <0>0        0.0400
     17  C14        0.5340   33.4920   61.0540 C.ar    0  <0>0        0.0034
     18  C13        0.5810   34.4230   60.0390 C.ar    0  <0>0        0.0049
     19  C12        0.7500   34.0060   58.7160 C.ar    0  <0>0        0.0594
     20  O3         0.9180   30.3850   59.1900 O.3     0  <0>0       -0.4684
     21  C17       -0.2640   29.5930   59.3310 C.3     0  <0>0        0.2526
     22  C18        0.8090   35.0010   57.6280 C.2     0  <0>0        0.1429
     23  N1         1.9450   35.5100   57.2780 N.2     0  <0>0       -0.0846
     24  O4         3.1080   35.2350   58.0370 O.2     0  <0>0       -0.4087
     25  H20        4.0190   34.8720   57.5370 H       0  <0>0        0.3278
@<TRIPOS>BOND
     1     8     7    1
     2    11     9    1
     3     7     9   ar
     4     7     6   ar
     5     9    10   ar
     6     6     5   ar
     7    10    13    1
     8    10    12   ar
     9     5    12   ar
    10     5     4    1
    11     4     3    1
    12     3     2    1
    13     2     1    1
    14     1    14    1
    15    23    22    2
    16    23    24    1
    17    25    24    1
    18    22    19    1
    19    14    19   ar
    20    14    15   ar
    21    19    18   ar
    22    20    21    1
    23    20    15    1
    24    15    16   ar
    25    18    17   ar
    26    16    17   ar
