@<TRIPOS>MOLECULE
ZINC63094050_replica-1.pdb
 28 29 0 0 0
SMALL
GASTEIGER

@<TRIPOS>ATOM
      1  N1         0.6860   32.4430   55.8130 N.am    0  <0>0       -0.2984
      2  C10        1.5170   32.4560   56.8730 C.2     0  <0>0        0.2479
      3  O2         1.9350   31.4100   57.3320 O.2     0  <0>0       -0.2701
      4  H10        0.3530   33.2760   55.4470 H       0  <0>0        0.1498
      5  C9         0.2850   31.1670   55.2120 C.3     0  <0>0        0.1229
      6  C8        -1.2290   31.1600   54.9930 C.3     0  <0>0        0.1736
      7  C7        -1.6910   29.7380   54.6700 C.3     0  <0>0        0.2361
      8  O1        -1.5230   29.4880   53.2740 O.3     0  <0>0       -0.4727
      9  C3        -1.1660   28.2280   52.9110 C.ar    0  <0>0        0.1409
     10  C2        -1.5400   27.7300   51.6710 C.ar    0  <0>0        0.0370
     11  C1        -1.1770   26.4480   51.3030 C.ar    0  <0>0        0.0054
     12  C6        -0.4400   25.6620   52.1690 C.ar    0  <0>0        0.0298
     13  C5        -0.0640   26.1560   53.4070 C.ar    0  <0>0        0.1432
     14  C4        -0.4260   27.4390   53.7790 C.ar    0  <0>0        0.0665
     15  F1         0.6570   25.3860   54.2510 F       0  <0>0       -0.2041
     16  O3        -1.8840   31.6170   56.1780 O.3     0  <0>0       -0.3791
     17  H14       -2.5230   30.9900   56.5410 H       0  <0>0        0.2106
     18  C11        1.9200   33.7380   57.4770 C.ar    0  <0>0        0.0771
     19  C15        3.1660   34.3150   57.1700 C.ar    0  <0>0        0.1183
     20  N2         3.5200   35.4720   57.7110 N.ar    0  <0>0       -0.2372
     21  C14        2.7360   36.1110   58.5570 C.ar    0  <0>0        0.0994
     22  C13        1.4990   35.6030   58.9130 C.ar    0  <0>0        0.0209
     23  C12        1.0730   34.4020   58.3730 C.ar    0  <0>0        0.0081
     24  S1         4.2560   33.5010   56.0520 S.3     0  <0>0        0.0048
     25  C16        4.6500   34.7710   54.8190 C.3     0  <0>0        0.4490
     26  F2         5.6920   35.5750   55.2950 F       0  <0>0       -0.1599
     27  F3         5.0440   34.1570   53.6250 F       0  <0>0       -0.1599
     28  F4         3.5200   35.5610   54.5860 F       0  <0>0       -0.1599
@<TRIPOS>BOND
     1    11    10   ar
     2    11    12   ar
     3    10     9   ar
     4    12    13   ar
     5     9     8    1
     6     9    14   ar
     7     8     7    1
     8    13    14   ar
     9    13    15    1
    10    27    25    1
    11    28    25    1
    12     7     6    1
    13    25    26    1
    14    25    24    1
    15     6     5    1
    16     6    16    1
    17     5     1    1
    18     4     1    1
    19     1     2   am
    20    24    19    1
    21    16    17    1
    22     2     3    2
    23     2    18    1
    24    19    18   ar
    25    19    20   ar
    26    18    23   ar
    27    20    21   ar
    28    23    22   ar
    29    21    22   ar
