@<TRIPOS>MOLECULE
ZINC13564472_replica-1.pdb
 27 28 0 0 0
SMALL
GASTEIGER

@<TRIPOS>ATOM
      1  N2         7.5350   33.9580   59.3080 N.pl3   0  <0>0       -0.2312
      2  C8         6.2940   34.4710   59.4900 C.1     0  <0>0        0.1724
      3  N3         5.2540   34.9000   59.6420 N.1     0  <0>0       -0.1739
      4  H5         7.9330   33.3960   59.9920 H       0  <0>0        0.1660
      5  C7         8.2320   34.2340   58.1520 C.2     0  <0>0        0.1679
      6  N1         9.2910   35.0100   58.1930 N.2     0  <0>0       -0.2242
      7  C5         9.7720   35.4470   59.3980 C.ar    0  <0>0        0.0832
      8  C4        10.6530   34.6500   60.1320 C.ar    0  <0>0        0.0230
      9  C3        11.1340   35.0960   61.3450 C.ar    0  <0>0        0.0729
     10  C2        10.7470   36.3300   61.8350 C.ar    0  <0>0        0.0039
     11  C1         9.8740   37.1260   61.1130 C.ar    0  <0>0        0.0015
     12  C6         9.3850   36.6920   59.8980 C.ar    0  <0>0        0.0191
     13  C17       12.0860   34.2370   62.1390 C.3     0  <0>0        0.4186
     14  F1        13.3390   34.2310   61.5150 F       0  <0>0       -0.1659
     15  F2        12.2110   34.7530   63.4330 F       0  <0>0       -0.1659
     16  F3        11.5910   32.9300   62.2020 F       0  <0>0       -0.1659
     17  S1         7.7030   33.5470   56.6190 S.3     0  <0>0       -0.0745
     18  C9         6.9220   34.9400   55.7580 C.3     0  <0>0        0.0911
     19  C10        5.4370   34.9180   56.0100 C.ar    0  <0>0       -0.0109
     20  C15        4.7760   33.7070   56.1270 C.ar    0  <0>0       -0.0032
     21  C14        3.4180   33.6790   56.3640 C.ar    0  <0>0        0.0063
     22  C13        2.7060   34.8760   56.4740 C.ar    0  <0>0        0.0798
     23  C12        3.3790   36.0950   56.3490 C.ar    0  <0>0        0.0063
     24  C11        4.7380   36.1070   56.1180 C.ar    0  <0>0       -0.0032
     25  C16        1.2530   34.8540   56.7210 C.2     0  <0>0        0.3878
     26  O1         0.6370   35.9030   56.8490 O.co2   0  <0>0       -0.2406
     27  O2         0.6610   33.7860   56.8000 O.co2   0  <0>0       -0.2406
@<TRIPOS>BOND
     1    18    19    1
     2    18    17    1
     3    19    24   ar
     4    19    20   ar
     5    24    23   ar
     6    20    21   ar
     7    23    22   ar
     8    21    22   ar
     9    22    25    1
    10    17     5    1
    11    25    27   ar
    12    25    26   ar
    13     5     6    2
    14     5     1    1
    15     6     7    1
    16     1     2    1
    17     1     4    1
    18     7    12   ar
    19     7     8   ar
    20     2     3    3
    21    12    11   ar
    22     8     9   ar
    23    11    10   ar
    24     9    10   ar
    25     9    13    1
    26    14    13    1
    27    13    16    1
    28    13    15    1
