@<TRIPOS>MOLECULE
ZINC14182568_replica-1.pdb
 28 32 0 0 0
SMALL
GASTEIGER

@<TRIPOS>ATOM
      1  N4         7.0850   36.4370   58.0200 N.3     0  <0>0       -0.2452
      2  C5         7.4110   37.8440   58.2880 C.3     0  <0>0        0.0797
      3  C6         7.9270   37.9680   59.7320 C.3     0  <0>0        0.0501
      4  C7         8.9280   36.8830   59.9520 C.ar    0  <0>0        0.0063
      5  C8         9.1350   35.7940   59.1590 C.ar    0  <0>0       -0.0005
      6  C9        10.1330   34.9100   59.5650 C.ar    0  <0>0        0.0045
      7  C10       10.8360   35.1550   60.6950 C.ar    0  <0>0        0.0348
      8  S2        10.1070   36.6860   61.2580 S.2     0  <0>0       -0.0910
      9  C11        8.2890   35.6040   57.9050 C.3     0  <0>0        0.1106
     10  C4         6.2410   36.3100   56.8250 C.3     0  <0>0        0.2055
     11  N3         5.0800   35.4700   57.1340 N.ar    0  <0>0       -0.2113
     12  N2         4.4270   35.3820   58.3720 N.ar    0  <0>0       -0.1485
     13  C2         3.4440   34.5350   58.2490 C.ar    0  <0>0        0.1649
     14  N1         3.4400   34.0520   56.9550 N.ar    0  <0>0       -0.2894
     15  C1         2.4970   33.0720   56.4080 C.3     0  <0>0        0.1339
     16  C3         4.4510   34.6350   56.2820 C.ar    0  <0>0        0.1811
     17  S1         4.8620   34.3660   54.6420 S.2     0  <0>0       -0.0112
     18  C16        2.4960   34.1510   59.3190 C.ar    0  <0>0        0.0359
     19  C21        1.2660   34.7990   59.4290 C.ar    0  <0>0        0.0030
     20  C20        0.3860   34.4370   60.4280 C.ar    0  <0>0        0.0001
     21  C19        0.7220   33.4320   61.3190 C.ar    0  <0>0        0.0000
     22  C18        1.9400   32.7850   61.2150 C.ar    0  <0>0        0.0001
     23  C17        2.8270   33.1360   60.2170 C.ar    0  <0>0        0.0030
     24  C12        7.8960   34.1550   57.7730 C.ar    0  <0>0        0.0260
     25  S3         7.1100   33.0910   58.9740 S.2     0  <0>0       -0.0891
     26  C15        7.0350   31.6080   57.9830 C.ar    0  <0>0        0.0352
     27  C14        7.6110   32.0140   56.8250 C.ar    0  <0>0        0.0072
     28  C13        8.0520   33.3200   56.7170 C.ar    0  <0>0        0.0043
@<TRIPOS>BOND
     1    17    16    2
     2    16    14   ar
     3    16    11   ar
     4    15    14    1
     5    28    27   ar
     6    28    24   ar
     7    27    26   ar
     8    10    11    1
     9    10     1    1
    10    14    13   ar
    11    11    12   ar
    12    24     9    1
    13    24    25   ar
    14     9     1    1
    15     9     5    1
    16    26    25   ar
    17     1     2    1
    18    13    12   ar
    19    13    18    1
    20     2     3    1
    21     5     6   ar
    22     5     4   ar
    23    18    19   ar
    24    18    23   ar
    25    19    20   ar
    26     6     7   ar
    27     3     4    1
    28     4     8   ar
    29    23    22   ar
    30    20    21   ar
    31     7     8   ar
    32    22    21   ar
