@<TRIPOS>MOLECULE
ZINC57707697_replica-1.pdb
 20 21 0 0 0
SMALL
GASTEIGER

@<TRIPOS>ATOM
      1  C6        10.7600   35.6600   61.1730 C.ar    0  <0>0        0.0447
      2  C7        10.6200   34.6910   60.1870 C.ar    0  <0>0        0.0155
      3  C8         9.7710   34.9130   59.1210 C.ar    0  <0>0        0.0143
      4  C9         9.0620   36.0960   59.0320 C.ar    0  <0>0        0.0315
      5  C10        9.1990   37.0620   60.0130 C.ar    0  <0>0        0.0143
      6  C11       10.0410   36.8460   61.0850 C.ar    0  <0>0        0.0155
      7  N1        11.6170   35.4390   62.2530 N.pl3   0  <0>0       -0.3326
      8  H12       11.3970   35.7980   63.1280 H       0  <0>0        0.1468
      9  C5        12.8480   34.6670   62.0670 C.3     0  <0>0        0.0870
     10  C3        12.9620   33.6150   63.1720 C.3     0  <0>0        0.0195
     11  C4        14.3900   33.0650   63.2070 C.3     0  <0>0        0.0017
     12  C2        11.9840   32.4730   62.8930 C.3     0  <0>0        0.0017
     13  C1        12.6450   31.1370   63.2400 C.3     0  <0>0        0.0001
     14  N2         8.2040   36.3170   57.9510 N.pl3   0  <0>0       -0.3758
     15  C16        8.5160   37.6110   57.3360 C.3     0  <0>0        0.0726
     16  C15        7.5270   37.8940   56.2020 C.3     0  <0>0        0.0198
     17  C14        7.6360   36.7880   55.1490 C.3     0  <0>0        0.0034
     18  C13        7.3820   35.4330   55.8180 C.3     0  <0>0        0.0198
     19  C12        8.3760   35.2420   56.9650 C.3     0  <0>0        0.0726
     20  H27        7.2490   36.3210   58.2770 H       0  <0>0        0.1277
@<TRIPOS>BOND
     1    17    18    1
     2    17    16    1
     3    18    19    1
     4    16    15    1
     5    19    14    1
     6    15    14    1
     7    14    20    1
     8    14     4    1
     9     4     3   ar
    10     4     5   ar
    11     3     2   ar
    12     5     6   ar
    13     2     1   ar
    14     6     1   ar
    15     1     7    1
    16     9     7    1
    17     9    10    1
    18     7     8    1
    19    12    10    1
    20    12    13    1
    21    10    11    1
