@<TRIPOS>MOLECULE
ZINC20303627_replica-1.pdb
 19 21 0 0 0
SMALL
GASTEIGER

@<TRIPOS>ATOM
      1  N2         0.5100   29.4430   56.0250 N.pl3   0  <0>0       -0.2821
      2  H5         1.2360   30.2510   55.8480 H       0  <0>0        0.1551
      3  C7         0.1610   28.5910   54.9980 C.2     0  <0>0        0.2152
      4  N1        -0.5790   28.8350   53.9390 N.2     0  <0>0       -0.3800
      5  C5        -0.8410   27.8970   53.0040 C.2     0  <0>0        0.1391
      6  C4        -0.2650   26.6270   53.2340 C.2     0  <0>0        0.0587
      7  C6        -1.6120   28.0290   51.8270 C.2     0  <0>0        0.0284
      8  C3        -0.4380   25.5690   52.3760 C.2     0  <0>0       -0.0123
      9  S1         0.6030   26.8750   54.7640 S.3     0  <0>0       -0.0377
     10  C2        -1.2020   25.7320   51.2350 C.3     0  <0>0        0.0527
     11  C1        -1.7830   26.9660   50.9790 C.2     0  <0>0       -0.0188
     12  C8        -0.0580   29.2800   57.2940 C.ar    0  <0>0        0.0613
     13  C13        0.4910   29.9300   58.3930 C.ar    0  <0>0        0.0733
     14  C12       -0.0730   29.7670   59.6430 C.ar    0  <0>0        0.0423
     15 Cl          1.8850   30.9450   58.1930 Cl      0  <0>0       -0.0809
     16  C11       -1.1840   28.9580   59.8020 C.ar    0  <0>0        0.1411
     17  C10       -1.7340   28.3100   58.7090 C.ar    0  <0>0        0.0310
     18  F1        -1.7350   28.8010   61.0260 F       0  <0>0       -0.2041
     19  C9        -1.1760   28.4730   57.4560 C.ar    0  <0>0        0.0178
@<TRIPOS>BOND
     1    11    10    1
     2    11     7    2
     3    10     8    1
     4     7     5    1
     5     8     6    2
     6     5     6    1
     7     5     4    2
     8     6     9    1
     9     4     3    2
    10     9     3    1
    11     3     1    1
    12     2     1    1
    13     1    12    1
    14    12    19   ar
    15    12    13   ar
    16    19    17   ar
    17    15    13    1
    18    13    14   ar
    19    17    16   ar
    20    14    16   ar
    21    16    18    1
