@<TRIPOS>MOLECULE
ZINC40738662_replica-1.pdb
 23 25 0 0 0
SMALL
GASTEIGER

@<TRIPOS>ATOM
      1  N1        -0.5810   31.8730   56.1020 N.pl3   0  <0>0       -0.3340
      2  H14       -0.3460   32.4070   55.3260 H       0  <0>0        0.1468
      3  C10       -1.3540   30.6400   55.9350 C.3     0  <0>0        0.0697
      4  C9        -0.4910   29.3670   55.9270 C.3     0  <0>0        0.0239
      5  C8        -0.3660   29.5570   54.4060 C.3     0  <0>0        0.0256
      6  C11       -1.6990   30.3220   54.4700 C.3     0  <0>0        0.0239
      7  C5        -0.4460   28.2690   53.6280 C.ar    0  <0>0       -0.0224
      8  C4        -1.1270   28.2290   52.4270 C.ar    0  <0>0       -0.0046
      9  C3        -1.2000   27.0480   51.7120 C.ar    0  <0>0       -0.0046
     10  C2        -0.5900   25.9070   52.1990 C.ar    0  <0>0       -0.0219
     11  C1        -0.6700   24.6190   51.4200 C.3     0  <0>0        0.0310
     12  C7         0.0860   25.9460   53.4040 C.ar    0  <0>0       -0.0046
     13  C6         0.1630   27.1280   54.1160 C.ar    0  <0>0       -0.0046
     14  C12       -0.1840   32.2820   57.3770 C.ar    0  <0>0        0.0446
     15  C17       -0.0300   33.6340   57.6580 C.ar    0  <0>0        0.0140
     16  C16        0.3580   34.0350   58.9210 C.ar    0  <0>0       -0.0029
     17  C15        0.6050   33.0930   59.9020 C.ar    0  <0>0       -0.0196
     18  C14        0.4580   31.7470   59.6240 C.ar    0  <0>0       -0.0029
     19  C13        0.0650   31.3380   58.3640 C.ar    0  <0>0        0.0140
     20  C18        1.0330   33.5340   61.2780 C.3     0  <0>0        0.0581
     21  C19       -0.1940   33.6370   62.1850 C.3     0  <0>0        0.1418
     22  O1        -0.8390   34.8950   61.9730 O.3     0  <0>0       -0.3816
     23  H23       -0.7450   35.2380   61.0750 H       0  <0>0        0.2105
@<TRIPOS>BOND
     1    11    10    1
     2     9    10   ar
     3     9     8   ar
     4    10    12   ar
     5     8     7   ar
     6    12    13   ar
     7     7    13   ar
     8     7     5    1
     9     5     6    1
    10     5     4    1
    11     6     3    1
    12     2     1    1
    13     4     3    1
    14     3     1    1
    15     1    14    1
    16    14    15   ar
    17    14    19   ar
    18    15    16   ar
    19    19    18   ar
    20    16    17   ar
    21    18    17   ar
    22    17    20    1
    23    23    22    1
    24    20    21    1
    25    22    21    1
