@<TRIPOS>MOLECULE
ZINC14000811_replica-1.pdb
 25 28 0 0 0
SMALL
GASTEIGER

@<TRIPOS>ATOM
      1  N1         6.3220   34.5320   56.9230 N.pl3   0  <0>0       -0.1923
      2  C9         6.6200   35.5540   57.7710 C.2     0  <0>0        0.2131
      3  N2         5.9180   36.1060   58.7580 N.2     0  <0>0       -0.3194
      4  C10        6.3580   37.2220   59.3250 C.1     0  <0>0        0.1821
      5  O1         5.7670   37.6440   60.3000 O.2     0  <0>0       -0.2141
      6  C11        7.5460   37.9910   58.8250 C.3     0  <0>0        0.1437
      7  C12        8.6270   37.0610   58.2660 C.3     0  <0>0        0.0674
      8  C13        7.9420   35.9770   57.4720 C.2     0  <0>0        0.0451
      9  C14        8.3960   35.2490   56.4420 C.2     0  <0>0        0.0762
     10  N3         7.4290   34.3540   56.0770 N.pl3   0  <0>0       -0.2553
     11  H14        7.4960   33.7080   55.3570 H       0  <0>0        0.1707
     12  C8         5.1350   33.7920   56.9030 C.ar    0  <0>0        0.0684
     13  C3         4.1360   34.1040   55.9890 C.ar    0  <0>0       -0.0069
     14  C4         2.9680   33.3680   55.9680 C.ar    0  <0>0       -0.0030
     15  C5         2.7900   32.3250   56.8570 C.ar    0  <0>0       -0.0002
     16  C6         3.7800   32.0140   57.7710 C.ar    0  <0>0        0.0013
     17  C7         4.9510   32.7470   57.7990 C.ar    0  <0>0        0.0162
     18  C2         4.3290   35.2410   55.0190 C.3     0  <0>0        0.0277
     19  C1         3.7610   36.5280   55.6220 C.3     0  <0>0        0.0051
     20  C15        9.4080   36.4480   59.4000 C.ar    0  <0>0       -0.0171
     21  C20        9.9240   35.1720   59.2740 C.ar    0  <0>0       -0.0039
     22  C19       10.6450   34.6120   60.3120 C.ar    0  <0>0       -0.0003
     23  C18       10.8420   35.3250   61.4800 C.ar    0  <0>0       -0.0000
     24  C17       10.3220   36.5990   61.6070 C.ar    0  <0>0       -0.0003
     25  C16        9.6050   37.1610   60.5680 C.ar    0  <0>0       -0.0039
@<TRIPOS>BOND
     1    18    19    1
     2    18    13    1
     3    11    10    1
     4    14    13   ar
     5    14    15   ar
     6    13    12   ar
     7    10     9    1
     8    10     1    1
     9     9     8    2
    10    15    16   ar
    11    12     1    1
    12    12    17   ar
    13     1     2    1
    14     8     2    1
    15     8     7    1
    16     2     3    2
    17    16    17   ar
    18     7     6    1
    19     7    20    1
    20     3     4    2
    21     6     4    1
    22    21    20   ar
    23    21    22   ar
    24     4     5    2
    25    20    25   ar
    26    22    23   ar
    27    25    24   ar
    28    23    24   ar
