@<TRIPOS>MOLECULE
ZINC48534535_replica-1.pdb
 25 27 0 0 0
SMALL
GASTEIGER

@<TRIPOS>ATOM
      1  C1         6.9810   32.6680   55.8860 C.3     0  <0>0        0.0470
      2  C2         6.6980   33.5150   57.1000 C.2     0  <0>0        0.0283
      3  C3         5.5470   34.2040   57.1800 C.2     0  <0>0        0.0711
      4  C4         5.2270   35.0510   58.3770 C.3     0  <0>0        0.0837
      5  C5         6.4710   35.3480   59.1770 C.2     0  <0>0        0.0303
      6  C6         7.5870   34.6070   59.0160 C.2     0  <0>0        0.0244
      7  N1         7.6120   33.5740   58.1150 N.pl3   0  <0>0       -0.3193
      8  C7         8.8280   34.8870   59.8260 C.3     0  <0>0        0.0413
      9  C8         8.9050   36.3810   60.1490 C.3     0  <0>0        0.0125
     10  C9         7.6390   36.7780   60.9140 C.3     0  <0>0        0.0692
     11  C10        6.4340   36.4160   60.0900 C.2     0  <0>0        0.1706
     12  O1         5.4100   37.0590   60.2150 O.2     0  <0>0       -0.2916
     13  C11       10.1360   36.6580   61.0130 C.3     0  <0>0        0.0008
     14  C12        8.9930   37.1840   58.8490 C.3     0  <0>0        0.0008
     15  H5         8.2850   32.8810   58.1950 H       0  <0>0        0.1516
     16  C13        4.2410   34.3190   59.2520 C.ar    0  <0>0        0.0160
     17  S1         4.4970   32.8770   60.2720 S.2     0  <0>0       -0.0896
     18  C16        2.8400   32.7290   60.9190 C.ar    0  <0>0        0.0418
     19  C15        2.2090   33.7670   60.3180 C.ar    0  <0>0        0.0412
     20  C14        2.9280   34.5820   59.4620 C.ar    0  <0>0        0.0100
     21 Br          0.3760   34.0960   60.6420 Br      0  <0>0       -0.0485
     22  C17        4.6160   34.1280   56.1160 C.2     0  <0>0        0.3388
     23  O2         3.8300   33.2010   56.0620 O.2     0  <0>0       -0.2452
     24  O3         4.6030   35.0820   55.1620 O.3     0  <0>0       -0.4415
     25  C18        4.7530   34.6470   53.8090 C.3     0  <0>0        0.2559
@<TRIPOS>BOND
     1    25    24    1
     2    24    22    1
     3     1     2    1
     4    23    22    2
     5    22     3    1
     6     2     3    2
     7     2     7    1
     8     3     4    1
     9     7    15    1
    10     7     6    1
    11     4     5    1
    12     4    16    1
    13    14     9    1
    14     6     5    2
    15     6     8    1
    16     5    11    1
    17    16    20   ar
    18    16    17   ar
    19    20    19   ar
    20     8     9    1
    21    11    12    2
    22    11    10    1
    23     9    10    1
    24     9    13    1
    25    17    18   ar
    26    19    21    1
    27    19    18   ar
