@<TRIPOS>MOLECULE
ZINC09676135_replica-1.pdb
 31 35 0 0 0
SMALL
GASTEIGER

@<TRIPOS>ATOM
      1  C9        10.6930   33.4030   61.5540 C.ar    0  <0>0        0.1042
      2  C10       10.0860   34.6360   61.0510 C.ar    0  <0>0        0.0562
      3  C11       10.4640   35.9900   61.0580 C.ar    0  <0>0        0.1019
      4  N1         9.7050   36.9080   60.5180 N.ar    0  <0>0       -0.2414
      5  C12        8.5330   36.6160   59.9330 C.ar    0  <0>0        0.1102
      6  C13        8.0730   35.2780   59.8790 C.ar    0  <0>0        0.0399
      7  C14        8.8720   34.2620   60.4540 C.ar    0  <0>0        0.0873
      8  N2         8.7560   32.9110   60.5880 N.ar    0  <0>0       -0.2296
      9  N3         9.8780   32.4150   61.2620 N.ar    0  <0>0       -0.1651
     10  C21        6.8510   34.9880   59.2650 C.ar    0  <0>0        0.0328
     11  C22        6.1080   35.9980   58.7200 C.ar    0  <0>0        0.1425
     12  C23        6.5560   37.3160   58.7700 C.ar    0  <0>0        0.0608
     13  C24        7.7440   37.6300   59.3630 C.ar    0  <0>0        0.1599
     14  F2         8.1620   38.9140   59.4010 F       0  <0>0       -0.2025
     15  F3         4.9280   35.7150   58.1270 F       0  <0>0       -0.2041
     16  C6        11.9880   33.2890   62.2660 C.ar    0  <0>0        0.0196
     17  C5        12.2890   32.1380   62.9920 C.ar    0  <0>0        0.0047
     18  C4        13.4950   32.0360   63.6520 C.ar    0  <0>0        0.0369
     19  C3        14.4090   33.0790   63.5940 C.ar    0  <0>0        0.1386
     20  C8        14.1140   34.2270   62.8730 C.ar    0  <0>0        0.0369
     21  C7        12.9110   34.3340   62.2060 C.ar    0  <0>0        0.0047
     22  O1        15.5980   32.9760   64.2460 O.3     0  <0>0       -0.4755
     23  C2        16.0370   34.1200   64.9800 C.3     0  <0>0        0.2055
     24  C1        17.4180   34.5480   64.4780 C.3     0  <0>0        0.0512
     25  C15        7.6860   32.1390   60.1210 C.ar    0  <0>0        0.0829
     26  C20        7.7410   31.5680   58.8560 C.ar    0  <0>0        0.0215
     27  C19        6.6840   30.8070   58.3960 C.ar    0  <0>0        0.0312
     28  C18        5.5700   30.6120   59.1950 C.ar    0  <0>0        0.1402
     29  C17        5.5130   31.1800   60.4580 C.ar    0  <0>0        0.0312
     30  F1         4.5370   29.8670   58.7440 F       0  <0>0       -0.2042
     31  C16        6.5700   31.9380   60.9230 C.ar    0  <0>0        0.0215
@<TRIPOS>BOND
     1    15    11    1
     2    27    26   ar
     3    27    28   ar
     4    11    12   ar
     5    11    10   ar
     6    30    28    1
     7    12    13   ar
     8    26    25   ar
     9    28    29   ar
    10    10     6   ar
    11    13    14    1
    12    13     5   ar
    13     6     5   ar
    14     6     7   ar
    15     5     4   ar
    16    25     8    1
    17    25    31   ar
    18     7     8   ar
    19     7     2   ar
    20    29    31   ar
    21     4     3   ar
    22     8     9   ar
    23     2     3   ar
    24     2     1   ar
    25     9     1   ar
    26     1    16    1
    27    21    16   ar
    28    21    20   ar
    29    16    17   ar
    30    20    19   ar
    31    17    18   ar
    32    19    18   ar
    33    19    22    1
    34    22    23    1
    35    24    23    1
