@<TRIPOS>MOLECULE
ZINC43220899_replica-1.pdb
 26 30 0 0 0
SMALL
GASTEIGER

@<TRIPOS>ATOM
      1  P1         4.4500   33.1010   57.9900 P.3     0  <0>0        0.3252
      2  O1         5.8730   32.3570   57.9190 O.3     0  <0>0       -0.4341
      3  C3         6.8900   32.8030   58.6820 C.ar    0  <0>0        0.1413
      4  C4         7.5490   31.7960   59.3810 C.ar    0  <0>0        0.0366
      5  C5         8.6140   32.0890   60.1830 C.ar    0  <0>0       -0.0015
      6  C6         9.0220   33.4080   60.3070 C.ar    0  <0>0       -0.0262
      7  C7         8.3720   34.4260   59.6350 C.ar    0  <0>0       -0.0268
      8  C8         7.2980   34.1380   58.7900 C.ar    0  <0>0        0.0140
      9  C9         6.5670   35.1830   57.9980 C.3     0  <0>0        0.0745
     10  C10        7.2120   36.5140   57.8590 C.ar    0  <0>0       -0.0199
     11  C11        7.1000   37.4370   58.8930 C.ar    0  <0>0       -0.0042
     12  C12        7.7630   38.6440   58.8370 C.ar    0  <0>0       -0.0003
     13  C13        8.4940   38.9880   57.7190 C.ar    0  <0>0       -0.0003
     14  C14        8.5080   38.1320   56.6320 C.ar    0  <0>0       -0.0046
     15  C15        7.8090   36.9410   56.6870 C.ar    0  <0>0       -0.0257
     16  C16        7.5760   36.1640   55.4180 C.3     0  <0>0        0.0286
     17  C17        6.1860   35.5450   55.4890 C.3     0  <0>0        0.0354
     18  C18        6.0530   34.6330   56.6790 C.3     0  <0>0        0.1318
     19  O2         4.6500   34.2960   56.8920 O.3     0  <0>0       -0.3002
     20  C19        8.7920   35.8540   59.8480 C.3     0  <0>0        0.0258
     21  C20        9.9510   36.0530   60.8160 C.3     0  <0>0        0.0050
     22  C21       10.9490   34.8980   60.7040 C.3     0  <0>0        0.0050
     23  C22       10.2160   33.6510   61.2020 C.3     0  <0>0        0.0260
     24  N1         3.3160   32.0460   57.3240 N.3     0  <0>0       -0.2024
     25  C1         2.5000   31.4200   58.3720 C.3     0  <0>0        0.0985
     26  C2         2.4700   32.7350   56.3400 C.3     0  <0>0        0.0985
@<TRIPOS>BOND
     1    16    17    1
     2    16    15    1
     3    17    18    1
     4    26    24    1
     5    14    15   ar
     6    14    13   ar
     7    18    19    1
     8    18     9    1
     9    15    10   ar
    10    19     1    1
    11    24     1    1
    12    24    25    1
    13    13    12   ar
    14    10     9    1
    15    10    11   ar
    16     2     1    1
    17     2     3    1
    18     9     8    1
    19     3     8   ar
    20     3     4   ar
    21     8     7   ar
    22    12    11   ar
    23     4     5   ar
    24     7    20    1
    25     7     6   ar
    26    20    21    1
    27     5     6   ar
    28     6    23    1
    29    22    21    1
    30    22    23    1
