@<TRIPOS>MOLECULE
ZINC04032150_replica-1.pdb
 28 31 0 0 0
SMALL
GASTEIGER

@<TRIPOS>ATOM
      1  C7         8.7620   34.9440   59.8140 C.ar    0  <0>0        0.0091
      2  C8         9.8720   34.9550   60.7750 C.ar    0  <0>0        0.0167
      3  C9        10.4360   33.7550   61.2230 C.ar    0  <0>0        0.0128
      4  C10       11.4760   33.7850   62.1250 C.ar    0  <0>0        0.0578
      5  C11       11.9680   34.9990   62.5880 C.ar    0  <0>0        0.0129
      6  C12       11.4230   36.1880   62.1560 C.ar    0  <0>0        0.0179
      7  C13       10.3700   36.1830   61.2450 C.ar    0  <0>0        0.0589
      8  N1         9.8250   37.3740   60.8110 N.ar    0  <0>0       -0.3209
      9  H1        10.1850   38.2100   61.1480 H       0  <0>0        0.1689
     10  C14        8.8090   37.4090   59.9320 C.ar    0  <0>0        0.2607
     11  O1         8.3590   38.4820   59.5750 O.2     0  <0>0       -0.2671
     12  C15        8.2390   36.1730   59.3930 C.ar    0  <0>0        0.0948
     13 Cl         12.1770   32.2990   62.6840 Cl      0  <0>0       -0.0822
     14  C16        7.1300   36.2210   58.4270 C.2     0  <0>0        0.2003
     15  O2         7.3640   36.3630   57.2390 O.2     0  <0>0       -0.2864
     16  C17        5.7930   36.1030   58.8770 C.2     0  <0>0        0.0453
     17  C18        4.9390   35.2530   58.2530 C.2     0  <0>0        0.0408
     18  C19        3.6030   35.1360   58.7020 C.ar    0  <0>0        0.1456
     19  O3         3.1320   34.2100   59.5640 O.2     0  <0>0       -0.4504
     20  C22        1.8210   34.4090   59.7600 C.ar    0  <0>0        0.1796
     21  C21        1.4190   35.4660   59.0170 C.ar    0  <0>0        0.0438
     22  C20        2.5460   35.9430   58.3320 C.ar    0  <0>0        0.0407
     23  C4         8.2160   33.6730   59.3000 C.ar    0  <0>0        0.0003
     24  C3         7.2680   32.9640   60.0430 C.ar    0  <0>0        0.0000
     25  C2         6.7620   31.7770   59.5560 C.ar    0  <0>0        0.0000
     26  C1         7.1900   31.2880   58.3340 C.ar    0  <0>0        0.0000
     27  C6         8.1280   31.9850   57.5920 C.ar    0  <0>0        0.0000
     28  C5         8.6440   33.1730   58.0670 C.ar    0  <0>0        0.0000
@<TRIPOS>BOND
     1    15    14    2
     2    27    28   ar
     3    27    26   ar
     4    28    23   ar
     5    17    18    1
     6    17    16    2
     7    22    18   ar
     8    22    21   ar
     9    26    25   ar
    10    14    16    1
    11    14    12    1
    12    18    19   ar
    13    21    20   ar
    14    23     1    1
    15    23    24   ar
    16    12     1   ar
    17    12    10   ar
    18    25    24   ar
    19    19    20   ar
    20    11    10    2
    21     1     2   ar
    22    10     8   ar
    23     2     3   ar
    24     2     7   ar
    25     8     9    1
    26     8     7   ar
    27     3     4   ar
    28     7     6   ar
    29     4     5   ar
    30     4    13    1
    31     6     5   ar
