@<TRIPOS>MOLECULE
ZINC50164796_replica-1.pdb
 18 18 0 0 0
SMALL
GASTEIGER

@<TRIPOS>ATOM
      1  C7         6.0700   36.1520   58.9270 C.2     0  <0>0        0.2089
      2  N2         4.7570   36.3020   58.8850 N.2     0  <0>0       -0.3727
      3  C8         4.0080   35.5420   58.1270 C.2     0  <0>0        0.1890
      4  C9         4.6690   34.5770   57.3740 C.3     0  <0>0        0.2170
      5  S1         6.3610   34.8860   57.8560 S.3     0  <0>0       -0.0487
      6 Cl          2.2830   35.7310   58.0630 Cl      0  <0>0       -0.0510
      7  N1         6.9860   36.8670   59.6700 N.pl3   0  <0>0       -0.3051
      8  H14        6.7640   37.1520   60.5700 H       0  <0>0        0.1496
      9  C4         8.2950   37.1930   59.1000 C.3     0  <0>0        0.0717
     10  C3         9.3390   37.2440   60.2160 C.3     0  <0>0        0.0196
     11  C2         9.9120   35.8430   60.4430 C.3     0  <0>0        0.0017
     12  C1         9.9540   35.0870   59.1130 C.3     0  <0>0        0.0001
     13  C5         8.2230   38.5560   58.4070 C.3     0  <0>0        0.0196
     14  C6         8.5770   38.3930   56.9260 C.3     0  <0>0        0.0017
     15  C10        4.1460   33.6180   56.4740 C.2     0  <0>0        0.3351
     16  O1         4.1850   32.4340   56.7560 O.2     0  <0>0       -0.2486
     17  O2         3.6040   34.0160   55.3040 O.3     0  <0>0       -0.4435
     18  C11        4.4910   34.5890   54.3410 C.3     0  <0>0        0.2556
@<TRIPOS>BOND
     1    18    17    1
     2    17    15    1
     3    15    16    2
     4    15     4    1
     5    14    13    1
     6     4     5    1
     7     4     3    1
     8     5     1    1
     9     6     3    1
    10     3     2    2
    11    13     9    1
    12     2     1    2
    13     1     7    1
    14     9     7    1
    15     9    10    1
    16    12    11    1
    17     7     8    1
    18    10    11    1
