@<TRIPOS>MOLECULE
ZINC11733711_replica-1.pdb
 22 23 0 0 0
SMALL
GASTEIGER

@<TRIPOS>ATOM
      1  C11        7.3260   37.0700   59.0440 C.3     0  <0>0        0.0500
      2  C12        7.0200   38.5180   59.4350 C.3     0  <0>0        0.0072
      3  C10        8.7760   36.9670   58.5660 C.3     0  <0>0        0.0328
      4  C7         9.6020   36.2620   59.6110 C.ar    0  <0>0       -0.0218
      5  C6         9.9670   34.9420   59.4270 C.ar    0  <0>0       -0.0046
      6  C5        10.7240   34.2950   60.3860 C.ar    0  <0>0       -0.0046
      7  C4        11.1160   34.9680   61.5280 C.ar    0  <0>0       -0.0225
      8  C9        10.7500   36.2890   61.7110 C.ar    0  <0>0       -0.0046
      9  C8         9.9980   36.9370   60.7510 C.ar    0  <0>0       -0.0046
     10  C2        11.9390   34.2620   62.5740 C.3     0  <0>0        0.0224
     11  C1        11.4640   32.8140   62.7070 C.3     0  <0>0        0.0047
     12  C3        13.4120   34.2800   62.1620 C.3     0  <0>0        0.0047
     13  C13        7.1240   36.1600   60.2570 C.3     0  <0>0        0.1414
     14  O1         6.5090   36.9010   61.3120 O.3     0  <0>0       -0.3816
     15  H19        6.2540   36.3630   62.0740 H       0  <0>0        0.2105
     16  C14        6.4010   36.6430   57.9340 C.ar    0  <0>0       -0.0200
     17  C19        6.7940   36.7810   56.6160 C.ar    0  <0>0       -0.0019
     18  C18        5.9470   36.3880   55.5970 C.ar    0  <0>0        0.0293
     19  C17        4.7030   35.8590   55.8960 C.ar    0  <0>0        0.1401
     20  C16        4.3100   35.7220   57.2170 C.ar    0  <0>0        0.0293
     21  F1         3.8740   35.4760   54.9010 F       0  <0>0       -0.2042
     22  C15        5.1610   36.1100   58.2340 C.ar    0  <0>0       -0.0019
@<TRIPOS>BOND
     1    21    19    1
     2    18    19   ar
     3    18    17   ar
     4    19    20   ar
     5    17    16   ar
     6    20    22   ar
     7    16    22   ar
     8    16     1    1
     9     3     1    1
    10     3     4    1
    11     1     2    1
    12     1    13    1
    13     5     4   ar
    14     5     6   ar
    15     4     9   ar
    16    13    14    1
    17     6     7   ar
    18     9     8   ar
    19    14    15    1
    20     7     8   ar
    21     7    10    1
    22    12    10    1
    23    10    11    1
