@<TRIPOS>MOLECULE
ZINC02757118_replica-1.pdb
 22 24 0 0 0
SMALL
GASTEIGER

@<TRIPOS>ATOM
      1  C6        -0.5780   29.3460   54.9460 C.ar    0  <0>0        0.0937
      2  C7        -1.2110   29.2570   53.7430 C.ar    0  <0>0        0.0685
      3  C8        -1.0930   28.0830   52.9750 C.ar    0  <0>0        0.0172
      4  C9        -1.6670   27.8020   51.7090 C.ar    0  <0>0        0.0010
      5  C10       -1.4580   26.6060   51.1010 C.ar    0  <0>0       -0.0042
      6  C11       -0.6790   25.6170   51.6890 C.ar    0  <0>0       -0.0214
      7  C12       -0.1000   25.8490   52.9210 C.ar    0  <0>0        0.0022
      8  C13       -0.3050   27.0580   53.5500 C.ar    0  <0>0        0.0301
      9  S2         0.2280   27.7610   55.0910 S.2     0  <0>0       -0.0816
     10  C14       -0.4670   24.3000   50.9880 C.3     0  <0>0        0.0310
     11 Cl         -2.1570   30.5890   53.1580 Cl      0  <0>0       -0.0816
     12  C5        -0.5650   30.4680   55.8920 C.2     0  <0>0        0.2578
     13  N3         0.5890   31.1100   56.1610 N.am    0  <0>0       -0.2588
     14  H6         1.4110   30.8310   55.7290 H       0  <0>0        0.1571
     15  O1        -1.5970   30.8180   56.4340 O.2     0  <0>0       -0.2692
     16  C4         0.6000   32.1720   57.0580 C.ar    0  <0>0        0.1880
     17  N2         0.5670   33.4780   56.8340 N.ar    0  <0>0       -0.1256
     18  N1         0.5840   34.3150   57.7780 N.ar    0  <0>0       -0.1440
     19  C3         0.6370   33.9460   59.0420 C.ar    0  <0>0        0.1123
     20  S1         0.6710   32.1670   58.8460 S.2     0  <0>0       -0.0347
     21  C2         0.6650   34.7840   60.2940 C.3     0  <0>0        0.0545
     22  C1        -0.0710   34.0490   61.4160 C.3     0  <0>0        0.0073
@<TRIPOS>BOND
     1    10     6    1
     2     5     6   ar
     3     5     4   ar
     4     6     7   ar
     5     4     3   ar
     6     7     8   ar
     7     3     8   ar
     8     3     2   ar
     9    11     2    1
    10     8     9   ar
    11     2     1   ar
    12     1     9   ar
    13     1    12    1
    14    14    13    1
    15    12    13   am
    16    12    15    2
    17    13    16    1
    18    17    16   ar
    19    17    18   ar
    20    16    20   ar
    21    18    19   ar
    22    20    19   ar
    23    19    21    1
    24    21    22    1
