@<TRIPOS>MOLECULE
ZINC21029828_replica-1.pdb
 29 31 0 0 0
SMALL
GASTEIGER

@<TRIPOS>ATOM
      1  C3         1.5140   33.0660   56.8650 C.3     0  <0>0        0.0941
      2  C2         1.0360   34.5070   56.6770 C.3     0  <0>0       -0.0394
      3  C1         0.8010   35.1490   58.0460 C.3     0  <0>0       -0.0217
      4  N4         2.0560   35.2710   55.9450 N.4     0  <0>0        0.3889
      5  H10        1.7070   35.5070   55.0290 H       0  <0>0       -0.0839
      6  H20        2.2700   36.1160   56.4520 H       0  <0>0       -0.0839
      7  C12        3.2740   34.4590   55.8120 C.3     0  <0>0       -0.0541
      8  C13        4.4480   35.2200   56.3690 C.ar    0  <0>0       -0.0435
      9  C18        4.5080   35.5060   57.7200 C.ar    0  <0>0       -0.0032
     10  C17        5.5870   36.2000   58.2330 C.ar    0  <0>0        0.0365
     11  C16        6.6060   36.6190   57.3900 C.ar    0  <0>0        0.1387
     12  C15        6.5420   36.3350   56.0340 C.ar    0  <0>0        0.0365
     13  C14        5.4630   35.6370   55.5260 C.ar    0  <0>0       -0.0032
     14  O1         7.6660   37.3050   57.8920 O.3     0  <0>0       -0.4714
     15  C19        8.4530   38.0540   56.9630 C.3     0  <0>0        0.2525
     16  N1         0.3870   32.2280   57.2830 N.pl3   0  <0>0       -0.2062
     17  C4        -0.3090   31.5830   56.3930 C.2     0  <0>0        0.2362
     18  S1        -1.7010   30.4800   56.2960 S.3     0  <0>0        0.0104
     19  N2        -0.3540   31.3850   55.0080 N.2     0  <0>0       -0.3557
     20  C5        -1.3410   30.5640   54.5560 C.2     0  <0>0        0.2405
     21  N3        -1.8110   30.0620   53.3770 N.pl3   0  <0>0       -0.1777
     22  C6        -1.4250   28.7850   52.9570 C.ar    0  <0>0        0.0746
     23  C11       -0.6590   27.9810   53.7910 C.ar    0  <0>0        0.0303
     24  C10       -0.2830   26.7170   53.3760 C.ar    0  <0>0        0.0863
     25  C9        -0.6610   26.2570   52.1250 C.ar    0  <0>0        0.1507
     26 Cl          0.6690   25.7100   54.4200 Cl      0  <0>0       -0.0799
     27  C8        -1.4210   27.0600   51.2910 C.ar    0  <0>0        0.0318
     28  F1        -0.2890   25.0230   51.7190 F       0  <0>0       -0.2033
     29  C7        -1.8030   28.3210   51.7030 C.ar    0  <0>0        0.0190
@<TRIPOS>BOND
     1    27    29   ar
     2    27    25   ar
     3    29    22   ar
     4    28    25    1
     5    25    24   ar
     6    22    21    1
     7    22    23   ar
     8    24    23   ar
     9    24    26    1
    10    21    20    1
    11    20    19    2
    12    20    18    1
    13    19    17    2
    14     5     4    1
    15    13    12   ar
    16    13     8   ar
    17     7     4    1
    18     7     8    1
    19     4     6    1
    20     4     2    1
    21    12    11   ar
    22    18    17    1
    23     8     9   ar
    24    17    16    1
    25     2     1    1
    26     2     3    1
    27     1    16    1
    28    15    14    1
    29    11    14    1
    30    11    10   ar
    31     9    10   ar
