@<TRIPOS>MOLECULE
ZINC02526560_replica-1.pdb
 23 23 0 0 0
SMALL
GASTEIGER

@<TRIPOS>ATOM
      1  C5         7.0390   36.2670   58.4680 C.ar    0  <0>0        0.0103
      2  C6         5.6720   36.4440   58.5610 C.ar    0  <0>0       -0.0056
      3  C7         4.8200   35.3660   58.4040 C.ar    0  <0>0       -0.0225
      4  C8         5.3350   34.1070   58.1530 C.ar    0  <0>0       -0.0056
      5  C9         6.7010   33.9250   58.0570 C.ar    0  <0>0        0.0103
      6  C10        7.5570   35.0060   58.2100 C.ar    0  <0>0        0.1255
      7  C15        3.3310   35.5630   58.5070 C.3     0  <0>0        0.0287
      8  C16        2.6990   35.4150   57.1220 C.3     0  <0>0        0.0311
      9  C17        3.5270   36.1950   56.0990 C.3     0  <0>0        0.0028
     10  C18        2.6670   33.9370   56.7310 C.3     0  <0>0        0.0028
     11  C19        1.2710   35.9660   57.1500 C.3     0  <0>0        0.1373
     12  O2         0.5240   35.4080   56.0670 O.3     0  <0>0       -0.3820
     13  H32        0.3050   34.4740   56.1820 H       0  <0>0        0.2104
     14  C2         7.9660   37.4430   58.6400 C.3     0  <0>0        0.0218
     15  C1         9.0900   37.0690   59.6080 C.3     0  <0>0        0.0045
     16  C3         7.1830   38.6320   59.2010 C.3     0  <0>0        0.0045
     17  C4         8.5650   37.8210   57.2840 C.3     0  <0>0        0.0045
     18  C11        7.2610   32.5520   57.7830 C.3     0  <0>0        0.0218
     19  C12        6.1110   31.5560   57.6180 C.3     0  <0>0        0.0045
     20  C13        8.0930   32.5880   56.5000 C.3     0  <0>0        0.0045
     21  C14        8.1470   32.1200   58.9540 C.3     0  <0>0        0.0045
     22  O1         8.9010   34.8300   58.1110 O.3     0  <0>0       -0.5061
     23  H12        9.2160   33.9930   58.4780 H       0  <0>0        0.2922
@<TRIPOS>BOND
     1    12    13    1
     2    12    11    1
     3     9     8    1
     4    20    18    1
     5    10     8    1
     6     8    11    1
     7     8     7    1
     8    17    14    1
     9    19    18    1
    10    18     5    1
    11    18    21    1
    12     5     4   ar
    13     5     6   ar
    14    22     6    1
    15    22    23    1
    16     4     3   ar
    17     6     1   ar
    18     3     7    1
    19     3     2   ar
    20     1     2   ar
    21     1    14    1
    22    14    16    1
    23    14    15    1
