@<TRIPOS>MOLECULE
ZINC35017132_replica-1.pdb
 20 21 0 0 0
SMALL
GASTEIGER

@<TRIPOS>ATOM
      1  N1        -0.7350   29.6480   55.7880 N.3     0  <0>0       -0.2944
      2  H8        -0.9550   30.6120   55.9860 H       0  <0>0        0.1235
      3  C3        -0.0230   29.5220   54.5090 C.3     0  <0>0        0.0731
      4  C2        -1.0370   29.4840   53.3630 C.3     0  <0>0        0.0381
      5  C1        -2.4350   29.7780   53.9080 C.3     0  <0>0        0.0061
      6  C12       -1.0220   28.1180   52.7270 C.ar    0  <0>0       -0.0212
      7  C17       -0.3160   27.0870   53.3180 C.ar    0  <0>0       -0.0042
      8  C16       -0.3060   25.8340   52.7370 C.ar    0  <0>0       -0.0003
      9  C15       -0.9940   25.6120   51.5590 C.ar    0  <0>0       -0.0000
     10  C14       -1.6960   26.6440   50.9640 C.ar    0  <0>0       -0.0003
     11  C13       -1.7100   27.8970   51.5480 C.ar    0  <0>0       -0.0042
     12  C4         0.0390   29.0490   56.8830 C.3     0  <0>0        0.0828
     13  C5         0.3310   30.0980   57.9250 C.ar    0  <0>0        0.0215
     14  S1         0.8890   31.7770   57.7020 S.2     0  <0>0       -0.0895
     15  C8         0.9600   32.2500   59.4230 C.ar    0  <0>0        0.0352
     16  C7         0.5670   31.1100   60.0420 C.ar    0  <0>0        0.0072
     17  C6         0.2440   30.0070   59.2740 C.ar    0  <0>0        0.0040
     18  C9        -0.7670   27.9120   57.5160 C.3     0  <0>0        0.0191
     19  C10       -2.2510   28.0940   57.1870 C.3     0  <0>0        0.0017
     20  C11       -0.2820   26.5720   56.9600 C.3     0  <0>0        0.0017
@<TRIPOS>BOND
     1    10    11   ar
     2    10     9   ar
     3    11     6   ar
     4     9     8   ar
     5     6     7   ar
     6     6     4    1
     7     8     7   ar
     8     4     5    1
     9     4     3    1
    10     3     1    1
    11     1     2    1
    12     1    12    1
    13    12    18    1
    14    12    13    1
    15    20    18    1
    16    19    18    1
    17    14    13   ar
    18    14    15   ar
    19    13    17   ar
    20    17    16   ar
    21    15    16   ar
