@<TRIPOS>MOLECULE
ZINC37127548_replica-1.pdb
 22 24 0 0 0
SMALL
GASTEIGER

@<TRIPOS>ATOM
      1  C10       10.0720   35.4200   59.9560 C.ar    0  <0>0        0.0463
      2  C11        9.9870   36.4470   60.8890 C.ar    0  <0>0        0.0144
      3  C12        9.3260   37.6170   60.5710 C.ar    0  <0>0        0.0028
      4  C13        8.7500   37.7730   59.3240 C.ar    0  <0>0        0.0192
      5  C14        8.8330   36.7500   58.3870 C.ar    0  <0>0        0.0841
      6  C15        9.4990   35.5750   58.7020 C.ar    0  <0>0        0.0334
      7  N1        10.7400   34.2370   60.2780 N.pl3   0  <0>0       -0.3306
      8  H12       11.3150   33.8110   59.6230 H       0  <0>0        0.1471
      9  C3        10.5720   33.6380   61.6050 C.3     0  <0>0        0.0919
     10  C2         9.7780   32.3360   61.4800 C.3     0  <0>0        0.0241
     11  C1         8.5690   32.5610   60.5700 C.3     0  <0>0        0.0021
     12  C4        11.9250   33.3470   62.2000 C.ar    0  <0>0       -0.0046
     13  C9        12.9620   34.2450   62.0320 C.ar    0  <0>0       -0.0027
     14  C8        14.2020   33.9800   62.5820 C.ar    0  <0>0       -0.0003
     15  C7        14.4080   32.8130   63.2930 C.ar    0  <0>0       -0.0000
     16  C6        13.3720   31.9130   63.4580 C.ar    0  <0>0       -0.0003
     17  C5        12.1310   32.1790   62.9110 C.ar    0  <0>0       -0.0027
     18  N2         8.2470   36.9080   57.1240 N.ar    0  <0>0       -0.2281
     19  N3         7.5200   38.0220   56.6860 N.ar    0  <0>0       -0.1635
     20  C18        7.1360   37.8030   55.4540 C.ar    0  <0>0        0.1221
     21  C17        7.5990   36.5400   55.0700 C.ar    0  <0>0        0.0431
     22  C16        8.2800   36.0100   56.1130 C.ar    0  <0>0        0.1020
@<TRIPOS>BOND
     1    21    20   ar
     2    21    22   ar
     3    20    19   ar
     4    22    18   ar
     5    19    18   ar
     6    18     5    1
     7     5     6   ar
     8     5     4   ar
     9     6     1   ar
    10     4     3   ar
    11     8     7    1
    12     1     7    1
    13     1     2   ar
    14     7     9    1
    15    11    10    1
    16     3     2   ar
    17    10     9    1
    18     9    12    1
    19    13    12   ar
    20    13    14   ar
    21    12    17   ar
    22    14    15   ar
    23    17    16   ar
    24    15    16   ar
