@<TRIPOS>MOLECULE
ZINC41570392_replica-1.pdb
 25 26 0 0 0
SMALL
GASTEIGER

@<TRIPOS>ATOM
      1  C8         6.7470   34.0270   58.0270 C.2     0  <0>0        0.3269
      2  O2         7.2350   33.4770   57.0670 O.2     0  <0>0       -0.2492
      3  O1         7.2710   35.1760   58.4800 O.3     0  <0>0       -0.4517
      4  C6         8.5390   35.5660   57.9460 C.3     0  <0>0        0.1687
      5  C5         8.4680   37.0190   57.4730 C.3     0  <0>0        0.0402
      6  C4         8.1120   37.9240   58.6550 C.3     0  <0>0        0.0036
      7  C3         9.1820   37.7920   59.7390 C.3     0  <0>0        0.0002
      8  C2         9.2530   36.3380   60.2120 C.3     0  <0>0        0.0036
      9  C1         7.8970   35.9210   60.7830 C.3     0  <0>0        0.0001
     10  C7         9.6100   35.4340   59.0310 C.3     0  <0>0        0.0436
     11  C16        7.3960   37.1510   56.3890 C.3     0  <0>0        0.0035
     12  C17        7.2220   38.6260   56.0210 C.3     0  <0>0        0.0001
     13  C18        7.8250   36.3630   55.1500 C.3     0  <0>0        0.0001
     14  C9         5.5520   33.4200   58.7170 C.3     0  <0>0        0.1506
     15  C10        6.0150   32.2890   59.6370 C.3     0  <0>0        0.0239
     16  S1         4.7110   34.6920   59.6990 S.3     0  <0>0       -0.1017
     17  C11        3.3430   35.1690   58.6950 C.ar    0  <0>0        0.0450
     18  C15        2.0450   34.9060   59.1060 C.ar    0  <0>0        0.1064
     19  N1         1.0160   35.2640   58.3610 N.ar    0  <0>0       -0.2291
     20  C14        1.1780   35.8730   57.1980 C.ar    0  <0>0        0.1254
     21  C13        2.4510   36.1640   56.7190 C.ar    0  <0>0        0.0344
     22  C12        3.5530   35.8090   57.4740 C.ar    0  <0>0        0.0106
     23  N2         0.0610   36.2280   56.4440 N.pl3   0  <0>0       -0.3426
     24  H20       -0.4550   37.0150   56.6810 H       0  <0>0        0.1437
     25  H21       -0.2000   35.6880   55.6810 H       0  <0>0        0.1437
@<TRIPOS>BOND
     1    13    11    1
     2    25    23    1
     3    12    11    1
     4    11     5    1
     5    23    24    1
     6    23    20    1
     7    21    20   ar
     8    21    22   ar
     9     2     1    2
    10    20    19   ar
    11     5     4    1
    12     5     6    1
    13    22    17   ar
    14     4     3    1
    15     4    10    1
    16     1     3    1
    17     1    14    1
    18    19    18   ar
    19     6     7    1
    20    17    18   ar
    21    17    16    1
    22    14    15    1
    23    14    16    1
    24    10     8    1
    25     7     8    1
    26     8     9    1
