@<TRIPOS>MOLECULE
ZINC51362753_replica-1.pdb
 21 23 0 0 0
SMALL
GASTEIGER

@<TRIPOS>ATOM
      1  C9         6.0410   36.4650   56.9440 C.ar    0  <0>0       -0.0002
      2  C10        5.1580   36.4140   55.8800 C.ar    0  <0>0       -0.0011
      3  C11        3.8750   35.9360   56.0640 C.ar    0  <0>0        0.0202
      4  C12        3.4720   35.5070   57.3190 C.ar    0  <0>0        0.1000
      5  C13        4.3610   35.5580   58.3920 C.ar    0  <0>0        0.1657
      6  C14        5.6480   36.0340   58.1980 C.ar    0  <0>0        0.0364
      7  O1         3.7060   35.0830   59.4810 O.2     0  <0>0       -0.4068
      8  C15        2.4570   34.7420   59.1290 C.ar    0  <0>0        0.4220
      9  O2         1.6170   34.2830   59.8800 O.2     0  <0>0       -0.2226
     10  N1         2.2770   34.9870   57.8160 N.ar    0  <0>0       -0.2601
     11  C16        1.0510   34.7510   57.0500 C.3     0  <0>0        0.1369
     12  C8         7.4380   36.9860   56.7350 C.3     0  <0>0        0.1240
     13 Cl          8.0820   36.3680   55.1680 Cl      0  <0>0       -0.1053
     14  C7         8.3240   36.5190   57.8610 C.ar    0  <0>0       -0.0073
     15  C2         8.5870   37.3570   58.9270 C.ar    0  <0>0       -0.0239
     16  C1         7.9890   38.7400   58.9640 C.3     0  <0>0        0.0308
     17  C3         9.3950   36.9260   59.9630 C.ar    0  <0>0        0.0022
     18  C4         9.9430   35.6570   59.9290 C.ar    0  <0>0        0.0342
     19  C5         9.6830   34.8190   58.8600 C.ar    0  <0>0        0.0064
     20 Br         11.0490   35.0680   61.3460 Br      0  <0>0       -0.0490
     21  C6         8.8760   35.2510   57.8250 C.ar    0  <0>0       -0.0026
@<TRIPOS>BOND
     1    13    12    1
     2     2     3   ar
     3     2     1   ar
     4     3     4   ar
     5    12     1    1
     6    12    14    1
     7     1     6   ar
     8    11    10    1
     9     4    10   ar
    10     4     5   ar
    11    10     8   ar
    12    21    14   ar
    13    21    19   ar
    14    14    15   ar
    15     6     5   ar
    16     5     7   ar
    17    19    18   ar
    18    15    16    1
    19    15    17   ar
    20     8     7   ar
    21     8     9    2
    22    18    17   ar
    23    18    20    1
