@<TRIPOS>MOLECULE
ZINC48524904_replica-1.pdb
 21 21 0 0 0
SMALL
GASTEIGER

@<TRIPOS>ATOM
      1  C4         8.0230   36.7880   60.1800 C.3     0  <0>0        0.1743
      2  N1         8.5740   36.6420   58.8310 N.am    0  <0>0       -0.2624
      3  C3         8.2870   37.5570   57.8840 C.2     0  <0>0        0.4020
      4  O2         7.5730   38.5040   58.1490 O.2     0  <0>0       -0.2264
      5  H7         9.1440   35.8860   58.6180 H       0  <0>0        0.1532
      6  O1         8.7930   37.4230   56.6430 O.3     0  <0>0       -0.4347
      7  C2         8.4460   36.2390   55.9250 C.3     0  <0>0        0.2102
      8  C1         7.2750   36.5350   54.9860 C.3     0  <0>0        0.0513
      9  C5         7.0630   35.6310   60.4670 C.3     0  <0>0        0.0290
     10  C6         5.6290   36.1630   60.5320 C.3     0  <0>0        0.0023
     11  C7         7.1700   34.5910   59.3500 C.3     0  <0>0        0.0023
     12  C8         9.1460   36.7700   61.1860 C.2     0  <0>0        0.3396
     13  O3         8.9420   37.1230   62.3230 O.2     0  <0>0       -0.2479
     14  O4        10.3710   36.3640   60.8180 O.3     0  <0>0       -0.4230
     15  C9        10.8850   35.2590   61.4200 C.ar    0  <0>0        0.1485
     16  C14       10.3120   34.0160   61.1960 C.ar    0  <0>0        0.0381
     17  C13       10.8390   32.8930   61.8040 C.ar    0  <0>0        0.0098
     18  C12       11.9320   33.0100   62.6450 C.ar    0  <0>0        0.0348
     19  C11       12.5020   34.2500   62.8750 C.ar    0  <0>0        0.0098
     20 Br         12.6470   31.4730   63.4830 Br      0  <0>0       -0.0490
     21  C10       11.9810   35.3740   62.2640 C.ar    0  <0>0        0.0381
@<TRIPOS>BOND
     1     8     7    1
     2     7     6    1
     3     6     3    1
     4     3     4    2
     5     3     2   am
     6     5     2    1
     7     2     1    1
     8    11     9    1
     9     1     9    1
    10     1    12    1
    11     9    10    1
    12    14    12    1
    13    14    15    1
    14    12    13    2
    15    16    15   ar
    16    16    17   ar
    17    15    21   ar
    18    17    18   ar
    19    21    19   ar
    20    18    19   ar
    21    18    20    1
