@<TRIPOS>MOLECULE
ZINC12052340_replica-1.pdb
 30 33 0 0 0
SMALL
GASTEIGER

@<TRIPOS>ATOM
      1  C10        5.5570   33.4370   57.5370 C.3     0  <0>0       -0.0769
      2  C11        4.6560   32.1970   57.5590 C.3     0  <0>0       -0.0224
      3  C12        3.2400   32.6140   57.1480 C.3     0  <0>0        0.0046
      4  C13        3.1600   33.4140   55.8440 C.3     0  <0>0       -0.0224
      5  C14        4.1490   34.5820   55.9240 C.3     0  <0>0       -0.0769
      6  C15        2.2500   32.9620   58.2580 C.3     0  <0>0        0.0094
      7  C16        2.0940   31.6590   57.4710 C.3     0  <0>0        0.0763
      8  N2         5.5020   34.0430   56.1890 N.4     0  <0>0        0.3896
      9  H35        5.7150   33.3200   55.4920 H       0  <0>0       -0.0792
     10  C17        0.9590   31.5740   56.4820 C.2     0  <0>0        0.2220
     11  O1         0.0090   32.3210   56.5840 O.2     0  <0>0       -0.2751
     12  N1         1.0000   30.6690   55.4850 N.am    0  <0>0       -0.3040
     13  H21        1.7600   30.0710   55.4030 H       0  <0>0        0.1494
     14  C18       -0.1030   30.5860   54.5240 C.3     0  <0>0        0.0937
     15  C19       -0.9660   29.3640   54.8410 C.3     0  <0>0        0.0429
     16  C20       -0.9270   28.4050   53.6800 C.2     0  <0>0       -0.0468
     17  C25       -0.0450   27.1970   53.7960 C.3     0  <0>0        0.0218
     18  C24       -0.4490   26.1500   52.7530 C.3     0  <0>0        0.0047
     19  C23       -0.5440   26.8420   51.3870 C.3     0  <0>0        0.0050
     20  C22       -1.7270   27.8120   51.4190 C.3     0  <0>0        0.0254
     21  C21       -1.6540   28.6760   52.6440 C.2     0  <0>0       -0.0346
     22  C9         6.5030   35.1230   56.0810 C.3     0  <0>0       -0.0503
     23  C8         7.2050   35.2790   57.4050 C.2     0  <0>0       -0.0491
     24  C7         8.4580   35.7100   57.4440 C.2     0  <0>0       -0.0067
     25  C4         9.1450   35.8680   58.7440 C.ar    0  <0>0       -0.0004
     26  C3         8.9750   37.0360   59.4890 C.ar    0  <0>0       -0.0000
     27  C2         9.6200   37.1770   60.7010 C.ar    0  <0>0       -0.0000
     28  C1        10.4320   36.1640   61.1780 C.ar    0  <0>0       -0.0000
     29  C6        10.6050   35.0030   60.4440 C.ar    0  <0>0       -0.0000
     30  C5         9.9610   34.8470   59.2340 C.ar    0  <0>0       -0.0000
@<TRIPOS>BOND
     1    19    20    1
     2    19    18    1
     3    20    21    1
     4    21    16    2
     5    18    17    1
     6    16    17    1
     7    16    15    1
     8    14    15    1
     9    14    12    1
    10    13    12    1
    11    12    10   am
    12     9     8    1
    13     4     5    1
    14     4     3    1
    15     5     8    1
    16    22     8    1
    17    22    23    1
    18     8     1    1
    19    10    11    2
    20    10     7    1
    21     3     7    1
    22     3     2    1
    23     3     6    1
    24    23    24    2
    25    24    25    1
    26     7     6    1
    27     1     2    1
    28    25    30   ar
    29    25    26   ar
    30    30    29   ar
    31    26    27   ar
    32    29    28   ar
    33    27    28   ar
