@<TRIPOS>MOLECULE
ZINC07709457_replica-1.pdb
 23 25 0 0 0
SMALL
GASTEIGER

@<TRIPOS>ATOM
      1  N2        -0.8360   29.6170   54.7850 N.pl3   0  <0>0       -0.2135
      2  H7        -0.4290   30.3630   54.3190 H       0  <0>0        0.1738
      3  C8        -0.4540   28.3110   54.4780 C.ar    0  <0>0        0.0823
      4  C7        -0.8400   27.7270   53.2520 C.ar    0  <0>0        0.0958
      5  C3        -0.4320   26.4010   52.9630 C.ar    0  <0>0        0.0190
      6  N1        -1.5640   28.4100   52.3610 N.ar    0  <0>0       -0.2426
      7  C2         0.3330   25.6890   53.9000 C.ar    0  <0>0        0.0016
      8  C4        -0.8130   25.8230   51.7370 C.ar    0  <0>0        0.0031
      9  C1         0.6850   26.2760   55.0770 C.ar    0  <0>0        0.0014
     10  C9         0.2970   27.5800   55.3720 C.ar    0  <0>0        0.0174
     11  C5        -1.5580   26.5730   50.8740 C.ar    0  <0>0        0.0207
     12  C6        -1.9200   27.8750   51.2180 C.ar    0  <0>0        0.0989
     13  S1        -1.9910   29.8910   55.9400 S.O2    0  <0>0        0.0745
     14  O1        -2.4710   31.2110   55.7290 O.2     0  <0>0       -0.1499
     15  O2        -2.8480   28.7580   55.9340 O.2     0  <0>0       -0.1499
     16  C10       -1.1740   29.8960   57.5010 C.ar    0  <0>0        0.1365
     17  C15       -0.2300   30.8660   57.7860 C.ar    0  <0>0        0.0870
     18  C14        0.4050   30.8720   59.0170 C.ar    0  <0>0        0.0695
     19 Cl          0.1510   32.0800   56.6060 Cl      0  <0>0       -0.0800
     20  C13        0.1050   29.9010   59.9540 C.ar    0  <0>0        0.0123
     21 Cl          1.5840   32.0940   59.3780 Cl      0  <0>0       -0.0813
     22  C12       -0.8340   28.9280   59.6660 C.ar    0  <0>0        0.0023
     23  C11       -1.4740   28.9250   58.4410 C.ar    0  <0>0        0.0211
@<TRIPOS>BOND
     1    11    12   ar
     2    11     8   ar
     3    12     6   ar
     4     8     5   ar
     5     6     4   ar
     6     5     4   ar
     7     5     7   ar
     8     4     3   ar
     9     7     9   ar
    10     2     1    1
    11     3     1    1
    12     3    10   ar
    13     1    13    1
    14     9    10   ar
    15    14    13    2
    16    15    13    2
    17    13    16    1
    18    19    17    1
    19    16    17   ar
    20    16    23   ar
    21    17    18   ar
    22    23    22   ar
    23    18    21    1
    24    18    20   ar
    25    22    20   ar
