@<TRIPOS>MOLECULE
ZINC04803109_replica-1.pdb
 29 31 0 0 0
SMALL
GASTEIGER

@<TRIPOS>ATOM
      1  N1        -0.0430   31.5610   55.1510 N.4     0  <0>0        0.1599
      2  C11       -1.1520   30.9570   54.8720 C.2     0  <0>0        0.3527
      3  C12       -1.2620   30.1210   53.6240 C.3     0  <0>0        0.1496
      4  C13       -0.6550   28.7640   53.8730 C.ar    0  <0>0       -0.0098
      5  C18       -0.8610   27.7210   52.9560 C.ar    0  <0>0       -0.0034
      6  C17       -0.2770   26.4530   53.2040 C.ar    0  <0>0       -0.0003
      7  C19       -1.6280   27.9100   51.7930 C.ar    0  <0>0       -0.0003
      8  C16        0.4870   26.2620   54.3680 C.ar    0  <0>0       -0.0000
      9  C22       -0.4760   25.4100   52.2830 C.ar    0  <0>0       -0.0000
     10  C15        0.6580   27.2950   55.2380 C.ar    0  <0>0       -0.0003
     11  C14        0.0900   28.5420   54.9900 C.ar    0  <0>0       -0.0037
     12  C21       -1.2370   25.6270   51.1760 C.ar    0  <0>0       -0.0000
     13  C20       -1.8050   26.8750   50.9280 C.ar    0  <0>0       -0.0000
     14  N2        -2.2320   31.0790   55.7160 N.2     0  <0>0       -0.2836
     15  H21       -2.1160   31.4600   56.6000 H       0  <0>0        0.3010
     16  H22       -3.1090   30.7850   55.4260 H       0  <0>0        0.3010
     17  O3         0.0600   32.3460   56.3250 O.3     0  <0>0       -0.2125
     18  C10        1.1530   32.0890   57.0580 C.2     0  <0>0        0.4155
     19  O2         2.1000   32.8440   57.0190 O.2     0  <0>0       -0.2409
     20  C9         1.2030   30.8600   57.9300 C.3     0  <0>0        0.3193
     21  O1        -0.1270   30.4660   58.2710 O.3     0  <0>0       -0.4637
     22  C6        -0.3720   29.1310   58.3570 C.ar    0  <0>0        0.1394
     23  C5         0.6460   28.2610   58.7230 C.ar    0  <0>0        0.0366
     24  C4         0.3950   26.9060   58.8110 C.ar    0  <0>0       -0.0012
     25  C3        -0.8670   26.4160   58.5340 C.ar    0  <0>0       -0.0220
     26  C8        -1.8810   27.2800   58.1630 C.ar    0  <0>0       -0.0012
     27  C7        -1.6370   28.6370   58.0800 C.ar    0  <0>0        0.0366
     28  C2        -1.1380   24.9360   58.6300 C.3     0  <0>0        0.0264
     29  C1        -0.2520   24.1890   57.6310 C.3     0  <0>0        0.0050
@<TRIPOS>BOND
     1    13    12   ar
     2    13     7   ar
     3    12     9   ar
     4     7     5   ar
     5     9     6   ar
     6     5     6   ar
     7     5     4   ar
     8     6     8   ar
     9     3     4    1
    10     3     2    1
    11     4    11   ar
    12     8    10   ar
    13     2     1    1
    14     2    14    2
    15    11    10   ar
    16     1    17    1
    17    16    14    1
    18    14    15    1
    19    17    18    1
    20    19    18    2
    21    18    20    1
    22    29    28    1
    23    20    21    1
    24    27    26   ar
    25    27    22   ar
    26    26    25   ar
    27    21    22    1
    28    22    23   ar
    29    25    28    1
    30    25    24   ar
    31    23    24   ar
