@<TRIPOS>MOLECULE
ZINC13416688_replica-1.pdb
 27 29 0 0 0
SMALL
GASTEIGER

@<TRIPOS>ATOM
      1  N1         0.0490   30.0430   55.0040 N.am    0  <0>0       -0.2975
      2  C12        0.1070   31.1970   55.6990 C.2     0  <0>0        0.2343
      3  O1        -0.9090   31.6900   56.1420 O.2     0  <0>0       -0.2741
      4  H10        0.8620   29.6500   54.6500 H       0  <0>0        0.1500
      5  C7        -1.2410   29.3860   54.7840 C.3     0  <0>0        0.1229
      6  C4        -1.1260   28.4320   53.6220 C.ar    0  <0>0        0.0002
      7  C3        -0.3910   27.2690   53.7520 C.ar    0  <0>0       -0.0023
      8  C2        -0.2860   26.3950   52.6870 C.ar    0  <0>0       -0.0003
      9  C1        -0.9150   26.6840   51.4910 C.ar    0  <0>0       -0.0000
     10  C6        -1.6500   27.8470   51.3600 C.ar    0  <0>0       -0.0003
     11  C5        -1.7590   28.7190   52.4270 C.ar    0  <0>0       -0.0023
     12  C8        -1.6350   28.6230   56.0220 C.ar    0  <0>0        0.0292
     13  S1        -0.5920   27.8110   57.2210 S.2     0  <0>0       -0.0888
     14  C11       -1.8780   27.1970   58.2980 C.ar    0  <0>0        0.0352
     15  C10       -2.9980   27.6410   57.6790 C.ar    0  <0>0        0.0072
     16  C9        -2.8740   28.3770   56.5150 C.ar    0  <0>0        0.0046
     17  C13        1.4340   31.8730   55.9270 C.3     0  <0>0        0.1498
     18  S2         1.8860   31.7410   57.6760 S.3     0  <0>0       -0.0663
     19  C14        2.1490   33.4420   58.0520 C.2     0  <0>0        0.1829
     20  S3         1.0000   34.7430   58.0830 S.3     0  <0>0       -0.0688
     21  C16        2.1340   36.0440   58.5490 C.3     0  <0>0        0.1199
     22  C15        3.2930   35.3490   58.6370 C.2     0  <0>0        0.1106
     23  N2         3.2700   34.0520   58.3890 N.2     0  <0>0       -0.3965
     24  C17        4.5790   36.0380   59.0140 C.3     0  <0>0        0.1691
     25  C18        5.5780   35.8840   57.8980 C.2     0  <0>0        0.3716
     26  O2         6.6640   35.4020   58.1210 O.co2   0  <0>0       -0.2452
     27  O3         5.2640   36.2810   56.6550 O.co2   0  <0>0       -0.2452
@<TRIPOS>BOND
     1    10     9   ar
     2    10    11   ar
     3     9     8   ar
     4    11     6   ar
     5     8     7   ar
     6     6     7   ar
     7     6     5    1
     8     4     1    1
     9     5     1    1
    10     5    12    1
    11     1     2   am
    12     2    17    1
    13     2     3    2
    14    17    18    1
    15    12    16   ar
    16    12    13   ar
    17    16    15   ar
    18    27    25   ar
    19    13    14   ar
    20    18    19    1
    21    15    14   ar
    22    25    26   ar
    23    25    24    1
    24    19    20    1
    25    19    23    2
    26    20    21    1
    27    23    22    2
    28    21    22    1
    29    22    24    1
