@<TRIPOS>MOLECULE
ZINC35371447_replica-1.pdb
 27 29 0 0 0
SMALL
GASTEIGER

@<TRIPOS>ATOM
      1  C11       -0.6710   30.7940   56.1850 C.3     0  <0>0        0.0612
      2  C10       -0.9590   29.9910   54.9430 C.ar    0  <0>0        0.0009
      3  C7        -0.4510   28.6530   54.6330 C.ar    0  <0>0        0.0131
      4  C6         0.3810   27.7530   55.3000 C.ar    0  <0>0        0.0012
      5  C8        -0.9810   28.3190   53.3740 C.ar    0  <0>0        0.0523
      6  C5         0.6750   26.5480   54.7270 C.ar    0  <0>0       -0.0002
      7  C4         0.1510   26.2100   53.4880 C.ar    0  <0>0       -0.0028
      8  C3        -0.6730   27.0830   52.8120 C.ar    0  <0>0       -0.0066
      9  N1        -1.7490   29.3830   52.9600 N.ar    0  <0>0       -0.3525
     10  H1        -2.2380   29.4260   52.1240 H       0  <0>0        0.1660
     11  C9        -1.7190   30.3730   53.9040 C.ar    0  <0>0        0.0684
     12  C2        -1.2350   26.7050   51.4660 C.3     0  <0>0        0.0278
     13  C1        -1.0940   25.1950   51.2600 C.3     0  <0>0        0.0051
     14  C12        0.7230   31.4170   56.0790 C.3     0  <0>0        0.0943
     15  C13        0.7190   32.7730   56.7370 C.2     0  <0>0        0.2231
     16  O1        -0.1290   33.0450   57.5600 O.2     0  <0>0       -0.2751
     17  N2         1.6570   33.6830   56.4100 N.am    0  <0>0       -0.3074
     18  H14        2.3350   33.4650   55.7510 H       0  <0>0        0.1493
     19  C14        1.6530   35.0020   57.0490 C.3     0  <0>0        0.0569
     20  C15        0.3390   35.7190   56.7270 C.3     0  <0>0        0.0196
     21  C16        1.7840   34.8350   58.5640 C.3     0  <0>0        0.0196
     22  C17        2.8270   35.8280   56.5220 C.3     0  <0>0        0.0196
     23  C18       -0.7280   29.8930   57.3910 C.ar    0  <0>0        0.0116
     24  S1         0.4920   29.6510   58.6730 S.2     0  <0>0       -0.0904
     25  C21       -0.4020   28.4490   59.6470 C.ar    0  <0>0        0.0351
     26  C20       -1.5470   28.3100   58.9380 C.ar    0  <0>0        0.0072
     27  C19       -1.7150   29.0490   57.7810 C.ar    0  <0>0        0.0030
@<TRIPOS>BOND
     1    13    12    1
     2    12     8    1
     3    10     9    1
     4     8     5   ar
     5     8     7   ar
     6     9     5   ar
     7     9    11   ar
     8     5     3   ar
     9     7     6   ar
    10    11     2   ar
    11     3     2   ar
    12     3     4   ar
    13     6     4   ar
    14     2     1    1
    15    18    17    1
    16    14     1    1
    17    14    15    1
    18     1    23    1
    19    17    15   am
    20    17    19    1
    21    22    19    1
    22    20    19    1
    23    15    16    2
    24    19    21    1
    25    23    27   ar
    26    23    24   ar
    27    27    26   ar
    28    24    25   ar
    29    26    25   ar
