@<TRIPOS>MOLECULE
ZINC36530506_replica-1.pdb
 29 30 0 0 0
SMALL
GASTEIGER

@<TRIPOS>ATOM
      1  C6         7.3480   34.9060   59.1910 C.3     0  <0>0        0.1771
      2  C5         7.8410   35.7660   58.0570 C.2     0  <0>0        0.2449
      3  N1         6.9820   36.5690   57.3980 N.am    0  <0>0       -0.3059
      4  H11        6.0590   36.6330   57.6870 H       0  <0>0        0.1494
      5  O1         9.0110   35.7370   57.7380 O.2     0  <0>0       -0.2729
      6  C2         7.4450   37.3450   56.2450 C.3     0  <0>0        0.0569
      7  C1         8.4870   38.3680   56.7010 C.3     0  <0>0        0.0196
      8  C3         6.2570   38.0750   55.6120 C.3     0  <0>0        0.0196
      9  C4         8.0710   36.4040   55.2140 C.3     0  <0>0        0.0196
     10  C7         6.4430   33.8290   58.6480 C.ar    0  <0>0        0.0257
     11  C12        5.2370   33.5590   59.2700 C.ar    0  <0>0        0.0565
     12  C11        4.4050   32.5760   58.7680 C.ar    0  <0>0        0.0112
     13 Cl          4.7650   34.4610   60.6770 Cl      0  <0>0       -0.0825
     14  C10        4.7840   31.8530   57.6520 C.ar    0  <0>0        0.0017
     15  C9         5.9910   32.1170   57.0330 C.ar    0  <0>0        0.0112
     16  C8         6.8220   33.1060   57.5310 C.ar    0  <0>0        0.0565
     17 Cl          8.3380   33.4390   56.7530 Cl      0  <0>0       -0.0825
     18  N2         8.4900   34.2870   59.8680 N.am    0  <0>0       -0.2576
     19  C13        8.7810   32.8660   59.6640 C.3     0  <0>0        0.1165
     20  C14        9.2740   35.0260   60.6780 C.2     0  <0>0        0.2932
     21  O2         9.0330   36.2070   60.8470 O.2     0  <0>0       -0.2604
     22  C15       10.3920   34.4220   61.3390 C.1     0  <0>0       -0.0025
     23  C16       11.3080   33.9270   61.8820 C.1     0  <0>0       -0.0554
     24  C17       12.4250   33.3230   62.5430 C.ar    0  <0>0        0.0421
     25  C22       13.6360   34.0140   62.6520 C.ar    0  <0>0        0.0082
     26  C21       14.7050   33.4270   63.2950 C.ar    0  <0>0        0.0006
     27  C20       14.5860   32.1530   63.8220 C.ar    0  <0>0        0.0000
     28  C19       13.3920   31.4600   63.7140 C.ar    0  <0>0        0.0006
     29  C18       12.3120   32.0360   63.0790 C.ar    0  <0>0        0.0082
@<TRIPOS>BOND
     1     9     6    1
     2     8     6    1
     3     6     7    1
     4     6     3    1
     5    17    16    1
     6    15    16   ar
     7    15    14   ar
     8     3     4    1
     9     3     2   am
    10    16    10   ar
    11    14    12   ar
    12     5     2    2
    13     2     1    1
    14    10     1    1
    15    10    11   ar
    16    12    11   ar
    17     1    18    1
    18    11    13    1
    19    19    18    1
    20    18    20   am
    21    20    21    2
    22    20    22    1
    23    22    23    3
    24    23    24    1
    25    24    25   ar
    26    24    29   ar
    27    25    26   ar
    28    29    28   ar
    29    26    27   ar
    30    28    27   ar
