@<TRIPOS>MOLECULE
ZINC61539455_replica-1.pdb
 22 23 0 0 0
SMALL
GASTEIGER

@<TRIPOS>ATOM
      1  N1         0.4600   29.2210   54.8720 N.pl3   0  <0>0       -0.2547
      2  C8         0.4570   29.9020   56.0720 C.1     0  <0>0        0.2215
      3  N2         1.0750   31.0750   56.1740 N.2     0  <0>0       -0.2466
      4  C9         1.0680   31.7270   57.3310 C.1     0  <0>0        0.2245
      5  N3         0.4460   31.2040   58.3840 N.2     0  <0>0       -0.2493
      6  C10       -0.1670   30.0370   58.2810 C.1     0  <0>0        0.2270
      7  N4        -0.1680   29.3880   57.1280 N.2     0  <0>0       -0.2494
      8 Cl         -0.9780   29.3590   59.6580 Cl      0  <0>0        0.0258
      9  N5         1.7090   32.9450   57.4400 N.pl3   0  <0>0       -0.2330
     10  H10        0.9160   29.5980   54.1020 H       0  <0>0        0.1605
     11  C3        -0.2250   27.9310   54.7590 C.3     0  <0>0        0.1085
     12  C2         0.7720   26.8000   55.0180 C.3     0  <0>0        0.0253
     13  C1         0.2590   25.9200   56.1600 C.3     0  <0>0        0.0021
     14  C4        -0.8010   27.7870   53.3740 C.ar    0  <0>0        0.0257
     15  S1        -1.8660   28.9060   52.4770 S.2     0  <0>0       -0.0891
     16  C7        -2.0290   27.9510   50.9780 C.ar    0  <0>0        0.0352
     17  C6        -1.2780   26.8580   51.2590 C.ar    0  <0>0        0.0072
     18  C5        -0.6490   26.7740   52.4870 C.ar    0  <0>0        0.0043
     19  C11        1.7020   33.6630   58.7170 C.3     0  <0>0        0.1032
     20  C12        0.8260   34.9120   58.5950 C.3     0  <0>0        0.0240
     21  C13        2.3940   33.5190   56.2800 C.3     0  <0>0        0.1032
     22  C14        3.8990   33.2780   56.4070 C.3     0  <0>0        0.0240
@<TRIPOS>BOND
     1    16    17   ar
     2    16    15   ar
     3    17    18   ar
     4    15    14   ar
     5    18    14   ar
     6    14    11    1
     7    10     1    1
     8    11     1    1
     9    11    12    1
    10     1     2    1
    11    12    13    1
    12     2     3    2
    13     2     7    2
    14     3     4    2
    15    21    22    1
    16    21     9    1
    17     7     6    2
    18     4     9    1
    19     4     5    2
    20     9    19    1
    21     6     5    2
    22     6     8    1
    23    20    19    1
