@<TRIPOS>MOLECULE
ZINC41795677_replica-1.pdb
 22 22 0 0 0
SMALL
GASTEIGER

@<TRIPOS>ATOM
      1  C7        -0.5390   29.6160   55.2630 C.3     0  <0>0        0.0703
      2  C8        -0.4220   30.9130   54.4620 C.3     0  <0>0       -0.0061
      3  N1         0.5920   29.5120   56.1950 N.4     0  <0>0        0.3967
      4  H14        1.4170   29.9050   55.7680 H       0  <0>0       -0.0830
      5  H21        0.7570   28.5420   56.4170 H       0  <0>0       -0.0830
      6  C2         0.2790   30.2490   57.4270 C.3     0  <0>0       -0.0606
      7  C1         1.2130   31.4550   57.5520 C.3     0  <0>0       -0.0234
      8  C3         0.4690   29.3300   58.6350 C.3     0  <0>0       -0.0213
      9  C4         1.2400   28.0800   58.2090 C.3     0  <0>0       -0.0020
     10  C5         2.5750   28.0270   58.9560 C.3     0  <0>0       -0.0001
     11  C6         0.4190   26.8340   58.5450 C.3     0  <0>0       -0.0001
     12  C9        -0.5210   28.4400   54.3210 C.ar    0  <0>0       -0.0295
     13  C14       -1.1870   28.5130   53.1120 C.ar    0  <0>0        0.0065
     14  C13       -1.1660   27.4360   52.2440 C.ar    0  <0>0        0.0678
     15  C12       -0.4850   26.2820   52.5910 C.ar    0  <0>0        0.0682
     16 Cl         -1.9960   27.5310   50.7220 Cl      0  <0>0       -0.0814
     17  C11        0.1760   26.2070   53.8030 C.ar    0  <0>0        0.0119
     18 Cl         -0.4630   24.9270   51.5040 Cl      0  <0>0       -0.0814
     19  C10        0.1580   27.2870   54.6680 C.ar    0  <0>0       -0.0048
     20  C15       -1.8310   29.6170   56.0390 C.2     0  <0>0        0.3503
     21  O1        -2.4820   30.6430   56.1380 O.co2   0  <0>0       -0.2476
     22  O2        -2.2250   28.5920   56.5690 O.co2   0  <0>0       -0.2476
@<TRIPOS>BOND
     1    16    14    1
     2    18    15    1
     3    14    15   ar
     4    14    13   ar
     5    15    17   ar
     6    13    12   ar
     7    17    19   ar
     8    12    19   ar
     9    12     1    1
    10     2     1    1
    11     1    20    1
    12     1     3    1
    13     4     3    1
    14    20    21   ar
    15    20    22   ar
    16     3     5    1
    17     3     6    1
    18     6     7    1
    19     6     8    1
    20     9    11    1
    21     9     8    1
    22     9    10    1
