@<TRIPOS>MOLECULE
ZINC15658030_replica-1.pdb
 25 27 0 0 0
SMALL
GASTEIGER

@<TRIPOS>ATOM
      1  C8        -1.1150   29.2290   54.4290 C.2     0  <0>0        0.1571
      2  N1        -0.2370   30.1140   54.8680 N.2     0  <0>0       -0.3945
      3  C9        -0.6340   31.1050   55.6530 C.2     0  <0>0        0.1741
      4  C10       -1.9600   31.1940   55.9980 C.3     0  <0>0        0.1281
      5  S1        -2.6290   29.8250   55.1640 S.3     0  <0>0       -0.0746
      6  C11        0.3340   32.0970   56.1490 C.2     0  <0>0        0.2760
      7  O2         1.5160   31.9810   55.8790 O.2     0  <0>0       -0.2673
      8  N2        -0.0870   33.1320   56.9030 N.am    0  <0>0       -0.2779
      9  H9        -1.0340   33.2600   57.0640 H       0  <0>0        0.1553
     10  C12        0.8440   34.0200   57.4540 C.ar    0  <0>0        0.0614
     11  C17        1.3680   33.7840   58.7180 C.ar    0  <0>0        0.0733
     12  C16        2.2920   34.6600   59.2570 C.ar    0  <0>0        0.0423
     13 Cl          0.8700   32.3860   59.6180 Cl      0  <0>0       -0.0809
     14  C15        2.6840   35.7800   58.5430 C.ar    0  <0>0        0.1411
     15  C14        2.1580   36.0200   57.2840 C.ar    0  <0>0        0.0310
     16  F1         3.5820   36.6380   59.0740 F       0  <0>0       -0.2041
     17  C13        1.2410   35.1440   56.7390 C.ar    0  <0>0        0.0178
     18  C5        -0.9010   28.0580   53.5530 C.ar    0  <0>0        0.0358
     19  C4        -0.1590   26.9680   54.0110 C.ar    0  <0>0        0.0062
     20  C3         0.0440   25.8800   53.1900 C.ar    0  <0>0        0.0370
     21  C2        -0.5000   25.8620   51.9120 C.ar    0  <0>0        0.1387
     22  C7        -1.2390   26.9440   51.4530 C.ar    0  <0>0        0.0370
     23  C6        -1.4410   28.0390   52.2660 C.ar    0  <0>0        0.0062
     24  O1        -0.3030   24.7860   51.1070 O.3     0  <0>0       -0.4714
     25  C1        -0.4220   23.4950   51.7090 C.3     0  <0>0        0.2525
@<TRIPOS>BOND
     1    24    25    1
     2    24    21    1
     3    22    21   ar
     4    22    23   ar
     5    21    20   ar
     6    23    18   ar
     7    20    19   ar
     8    18    19   ar
     9    18     1    1
    10     1     2    2
    11     1     5    1
    12     2     3    2
    13     5     4    1
    14     3     4    1
    15     3     6    1
    16     7     6    2
    17     6     8   am
    18    17    15   ar
    19    17    10   ar
    20     8     9    1
    21     8    10    1
    22    15    14   ar
    23    10    11   ar
    24    14    16    1
    25    14    12   ar
    26    11    12   ar
    27    11    13    1
