@<TRIPOS>MOLECULE
ZINC37856853_replica-1.pdb
 23 24 0 0 0
SMALL
GASTEIGER

@<TRIPOS>ATOM
      1  C9        -0.1620   30.9640   55.9430 C.3     0  <0>0        0.1735
      2  C8        -1.3080   30.1370   55.3580 C.3     0  <0>0        0.1206
      3  N1        -1.1240   30.0020   53.9100 N.pl3   0  <0>0       -0.3306
      4  H9        -1.1040   30.7930   53.3490 H       0  <0>0        0.1469
      5  C5        -0.9790   28.7360   53.3400 C.ar    0  <0>0        0.0447
      6  C4        -1.5820   28.4480   52.1210 C.ar    0  <0>0        0.0140
      7  C3        -1.4360   27.1950   51.5600 C.ar    0  <0>0       -0.0030
      8  C2        -0.6890   26.2280   52.2070 C.ar    0  <0>0       -0.0218
      9  C1        -0.5310   24.8620   51.5900 C.3     0  <0>0        0.0310
     10  C7        -0.0910   26.5090   53.4220 C.ar    0  <0>0       -0.0030
     11  C6        -0.2290   27.7620   53.9870 C.ar    0  <0>0        0.0140
     12  C10       -0.2530   30.9530   57.4700 C.3     0  <0>0        0.2362
     13  O1         0.8730   31.6410   58.0200 O.3     0  <0>0       -0.4711
     14  C11        0.7170   32.1920   59.2520 C.ar    0  <0>0        0.1595
     15  C16        0.8190   31.3990   60.3860 C.ar    0  <0>0        0.0924
     16  C15        0.6670   31.9640   61.6400 C.ar    0  <0>0        0.0145
     17 Cl          1.1420   29.7000   60.2330 Cl      0  <0>0       -0.0791
     18  C14        0.4020   33.3150   61.7620 C.ar    0  <0>0        0.0019
     19  C13        0.2950   34.1070   60.6340 C.ar    0  <0>0        0.0145
     20  C12        0.4530   33.5480   59.3800 C.ar    0  <0>0        0.0924
     21 Cl          0.3190   34.5430   57.9620 Cl      0  <0>0       -0.0791
     22  O2        -0.2540   32.3090   55.4700 O.3     0  <0>0       -0.3791
     23  H17        0.5660   32.6470   55.0860 H       0  <0>0        0.2106
@<TRIPOS>BOND
     1     7     6   ar
     2     7     8   ar
     3     9     8    1
     4     6     5   ar
     5     8    10   ar
     6     5     3    1
     7     5    11   ar
     8     4     3    1
     9    10    11   ar
    10     3     2    1
    11    23    22    1
    12     2     1    1
    13    22     1    1
    14     1    12    1
    15    12    13    1
    16    21    20    1
    17    13    14    1
    18    14    20   ar
    19    14    15   ar
    20    20    19   ar
    21    17    15    1
    22    15    16   ar
    23    19    18   ar
    24    16    18   ar
