@<TRIPOS>MOLECULE
ZINC66540792_replica-1.pdb
 23 23 0 0 0
SMALL
GASTEIGER

@<TRIPOS>ATOM
      1  C4        10.0710   35.2120   60.8050 C.3     0  <0>0        0.0750
      2  C5        10.1550   34.8870   59.3130 C.3     0  <0>0        0.0234
      3  C6         8.9270   35.4540   58.5970 C.3     0  <0>0        0.0453
      4  C7         8.8810   36.9710   58.7870 C.3     0  <0>0        0.1690
      5  C8         8.7980   37.2970   60.2800 C.3     0  <0>0        0.0453
      6  C9        10.0260   36.7310   60.9950 C.3     0  <0>0        0.0234
      7  O3         7.7340   37.5000   58.1190 O.3     0  <0>0       -0.4517
      8  C10        7.9560   38.2340   57.0170 C.2     0  <0>0        0.3280
      9  O4         8.8260   39.0730   57.0140 O.2     0  <0>0       -0.2491
     10  C11        7.1190   38.0120   55.7830 C.3     0  <0>0        0.1670
     11  S1         7.4980   36.3830   55.0800 S.3     0  <0>0       -0.1286
     12  C12        6.0190   35.3960   55.4390 C.3     0  <0>0        0.0581
     13  C13        4.9020   36.3130   55.9410 C.3     0  <0>0        0.0117
     14  C14        4.0950   35.5890   57.0190 C.3     0  <0>0        0.0009
     15  C15        4.6950   35.8910   58.3950 C.3     0  <0>0        0.0000
     16  C16        2.6430   36.0700   56.9790 C.3     0  <0>0        0.0000
     17  N1        11.2470   34.6700   61.4900 N.am    0  <0>0       -0.2723
     18  C3        11.2150   33.4220   61.9970 C.2     0  <0>0        0.4016
     19  O2        10.2110   32.7460   61.8870 O.2     0  <0>0       -0.2264
     20  H6        12.0490   35.2090   61.5790 H       0  <0>0        0.1527
     21  O1        12.2960   32.9240   62.6270 O.3     0  <0>0       -0.4347
     22  C2        13.2760   33.8630   63.0770 C.3     0  <0>0        0.2102
     23  C1        14.6440   33.1810   63.1420 C.3     0  <0>0        0.0513
@<TRIPOS>BOND
     1    11    12    1
     2    11    10    1
     3    12    13    1
     4    10     8    1
     5    13    14    1
     6    16    14    1
     7     9     8    2
     8     8     7    1
     9    14    15    1
    10     7     4    1
    11     3     4    1
    12     3     2    1
    13     4     5    1
    14     2     1    1
    15     5     6    1
    16     1     6    1
    17     1    17    1
    18    17    20    1
    19    17    18   am
    20    19    18    2
    21    18    21    1
    22    21    22    1
    23    22    23    1
