@<TRIPOS>MOLECULE
ZINC11952086_replica-1.pdb
 26 28 0 0 0
SMALL
GASTEIGER

@<TRIPOS>ATOM
      1  C10        0.1120   28.2770   55.2690 C.ar    0  <0>0        0.1402
      2  C11        0.6220   26.9840   55.3760 C.ar    0  <0>0        0.0370
      3  C12        0.4350   26.0580   54.3990 C.ar    0  <0>0        0.0031
      4  C13       -0.2880   26.3750   53.2350 C.ar    0  <0>0        0.0002
      5  C14       -0.4880   25.4250   52.2200 C.ar    0  <0>0        0.0000
      6  C15       -1.1930   25.7670   51.1060 C.ar    0  <0>0        0.0000
      7  C16       -1.7210   27.0470   50.9570 C.ar    0  <0>0        0.0000
      8  C17       -1.5450   27.9940   51.9220 C.ar    0  <0>0        0.0001
      9  C18       -0.8250   27.6760   53.0800 C.ar    0  <0>0        0.0045
     10  C19       -0.6190   28.6580   54.1430 C.ar    0  <0>0        0.0564
     11  O2         0.3240   29.1710   56.2680 O.3     0  <0>0       -0.4714
     12  C9        -0.1460   28.8130   57.5680 C.3     0  <0>0        0.2525
     13  C8        -0.3960   30.0810   58.3870 C.3     0  <0>0        0.2524
     14  O1         0.8320   30.7930   58.5500 O.3     0  <0>0       -0.4721
     15  C7         0.7610   32.0240   59.1220 C.ar    0  <0>0        0.1307
     16  C2         0.6690   33.1560   58.3250 C.ar    0  <0>0        0.0118
     17  C1         0.6480   33.0230   56.8240 C.3     0  <0>0        0.0342
     18  C3         0.5890   34.4060   58.9090 C.ar    0  <0>0       -0.0013
     19  C4         0.6080   34.5290   60.2860 C.ar    0  <0>0       -0.0004
     20  C5         0.7060   33.4030   61.0820 C.ar    0  <0>0       -0.0013
     21  C6         0.7850   32.1510   60.5030 C.ar    0  <0>0        0.0118
     22  C21        0.8920   30.9240   61.3710 C.3     0  <0>0        0.0342
     23  C20       -1.1640   30.0180   54.0260 C.2     0  <0>0        0.1428
     24  N1        -2.2770   30.3240   54.6170 N.2     0  <0>0       -0.0846
     25  O3        -2.9050   29.3860   55.4720 O.2     0  <0>0       -0.4087
     26  H18       -2.8130   29.5870   56.4130 H       0  <0>0        0.3278
@<TRIPOS>BOND
     1     7     6   ar
     2     7     8   ar
     3     6     5   ar
     4     8     9   ar
     5     5     4   ar
     6     9     4   ar
     7     9    10   ar
     8     4     3   ar
     9    23    10    1
    10    23    24    2
    11    10     1   ar
    12     3     2   ar
    13    24    25    1
    14     1     2   ar
    15     1    11    1
    16    25    26    1
    17    11    12    1
    18    17    16    1
    19    12    13    1
    20    16    18   ar
    21    16    15   ar
    22    13    14    1
    23    14    15    1
    24    18    19   ar
    25    15    21   ar
    26    19    20   ar
    27    21    20   ar
    28    21    22    1
