@<TRIPOS>MOLECULE
ZINC60392876_replica-1.pdb
 19 20 0 0 0
SMALL
GASTEIGER

@<TRIPOS>ATOM
      1  C6        11.4130   34.8590   61.6460 C.ar    0  <0>0        0.0266
      2  C7        10.8140   34.5620   60.4220 C.ar    0  <0>0        0.0053
      3  C8         9.9910   35.4890   59.8170 C.ar    0  <0>0        0.0370
      4  C9         9.7600   36.7150   60.4240 C.ar    0  <0>0        0.1384
      5  C10       10.3540   37.0140   61.6420 C.ar    0  <0>0        0.0370
      6  C11       11.1740   36.0890   62.2560 C.ar    0  <0>0        0.0053
      7  C4        12.2980   33.8640   62.3000 C.2     0  <0>0        0.1225
      8  N2        13.5630   34.1710   62.5810 N.2     0  <0>0       -0.3846
      9  C3        14.3640   33.2980   63.1630 C.2     0  <0>0        0.2073
     10  S1        13.2820   31.8880   63.3470 S.3     0  <0>0       -0.0597
     11  C5        11.8250   32.6240   62.6200 C.3     0  <0>0        0.1247
     12  N1        15.6930   33.4370   63.5290 N.pl3   0  <0>0       -0.3035
     13  H6        16.3950   33.1600   62.9190 H       0  <0>0        0.1496
     14  C2        16.0380   34.0000   64.8360 C.3     0  <0>0        0.0896
     15  C1        17.4580   34.5670   64.7890 C.3     0  <0>0        0.0230
     16  O1         8.9480   37.6270   59.8250 O.3     0  <0>0       -0.4792
     17  C12        7.7870   37.1240   59.1600 C.3     0  <0>0        0.1661
     18  C13        6.5330   37.5710   59.9150 C.3     0  <0>0        0.0472
     19  C14        7.7430   37.6670   57.7310 C.3     0  <0>0        0.0472
@<TRIPOS>BOND
     1    19    17    1
     2    17    16    1
     3    17    18    1
     4     3     2   ar
     5     3     4   ar
     6    16     4    1
     7     2     1   ar
     8     4     5   ar
     9     5     6   ar
    10     1     6   ar
    11     1     7    1
    12     7     8    2
    13     7    11    1
    14     8     9    2
    15    11    10    1
    16    13    12    1
    17     9    10    1
    18     9    12    1
    19    12    14    1
    20    15    14    1
