@<TRIPOS>MOLECULE
ZINC23138007_replica-1.pdb
 28 30 0 0 0
SMALL
GASTEIGER

@<TRIPOS>ATOM
      1  C8         6.9500   36.2880   60.0940 C.1     0  <0>0        0.1787
      2  N1         7.9080   36.1410   61.0510 N.2     0  <0>0       -0.2640
      3  C9         9.0530   36.8520   60.9680 C.1     0  <0>0        0.1980
      4  O1         9.9220   36.7330   61.8170 O.2     0  <0>0       -0.2130
      5  C10        9.2240   37.7340   59.8870 C.3     0  <0>0        0.1910
      6  C11        8.2290   37.8400   58.9580 C.2     0  <0>0        0.1265
      7  N2         7.1190   37.1180   59.0820 N.2     0  <0>0       -0.3415
      8  C12        8.3890   38.7790   57.7890 C.3     0  <0>0        0.1414
      9  C13        7.8310   38.1330   56.5470 C.2     0  <0>0        0.2296
     10  O2         7.1560   38.7820   55.7760 O.2     0  <0>0       -0.2746
     11  N3         8.0820   36.8330   56.2940 N.am    0  <0>0       -0.3001
     12  H11        8.6940   36.2450   56.9930 H       0  <0>0        0.1498
     13  C14        7.5400   36.2030   55.0860 C.3     0  <0>0        0.1163
     14  C15        6.4470   35.2400   55.4690 C.ar    0  <0>0       -0.0025
     15  C20        6.7140   34.2030   56.3450 C.ar    0  <0>0       -0.0018
     16  C19        5.7120   33.3190   56.6950 C.ar    0  <0>0        0.0111
     17  C18        4.4410   33.4720   56.1720 C.ar    0  <0>0        0.0577
     18  C17        4.1730   34.5090   55.2960 C.ar    0  <0>0        0.0111
     19 Cl          3.1800   32.3620   56.6130 Cl      0  <0>0       -0.0822
     20  C16        5.1750   35.3960   54.9500 C.ar    0  <0>0       -0.0018
     21  S1         5.4610   35.3540   60.2090 S.3     0  <0>0       -0.0127
     22  C7         4.5180   36.0990   58.8560 C.3     0  <0>0        0.1006
     23  C4         3.1440   35.4810   58.8000 C.ar    0  <0>0       -0.0103
     24  C3         2.1950   35.9810   57.9280 C.ar    0  <0>0       -0.0034
     25  C2         0.9360   35.4140   57.8760 C.ar    0  <0>0       -0.0003
     26  C1         0.6250   34.3470   58.6980 C.ar    0  <0>0       -0.0000
     27  C6         1.5730   33.8460   59.5700 C.ar    0  <0>0       -0.0003
     28  C5         2.8340   34.4100   59.6170 C.ar    0  <0>0       -0.0034
@<TRIPOS>BOND
     1    20    18   ar
     2    20    14   ar
     3    13    14    1
     4    13    11    1
     5    18    17   ar
     6    14    15   ar
     7    10     9    2
     8    17    19    1
     9    17    16   ar
    10    11     9   am
    11    11    12    1
    12    15    16   ar
    13     9     8    1
    14     8     6    1
    15    25    24   ar
    16    25    26   ar
    17    24    23   ar
    18    26    27   ar
    19    23    22    1
    20    23    28   ar
    21    22    21    1
    22     6     7    2
    23     6     5    1
    24     7     1    2
    25    27    28   ar
    26     5     3    1
    27     1    21    1
    28     1     2    2
    29     3     2    2
    30     3     4    2
