@<TRIPOS>MOLECULE
ZINC00386247_replica-1.pdb
 21 23 0 0 0
SMALL
GASTEIGER

@<TRIPOS>ATOM
      1  C5         8.9810   34.8060   59.8690 C.ar    0  <0>0        0.0610
      2  C6         9.8360   35.6490   60.5760 C.ar    0  <0>0        0.0040
      3  C7        10.7730   35.1230   61.4460 C.ar    0  <0>0        0.0122
      4  C8        10.8620   33.7500   61.6220 C.ar    0  <0>0        0.1372
      5  C9        10.0090   32.9030   60.9220 C.ar    0  <0>0        0.0735
      6  C10        9.0750   33.4200   60.0440 C.ar    0  <0>0        0.1438
      7  O2        11.7630   33.1980   62.4760 O.3     0  <0>0       -0.4828
      8  C12       12.8600   34.0040   62.9040 C.3     0  <0>0        0.1336
      9  C13       12.3120   35.3540   63.3820 C.3     0  <0>0        0.0448
     10  C14       11.6850   36.0700   62.1840 C.3     0  <0>0        0.0330
     11  C15       13.5940   33.3090   64.0520 C.3     0  <0>0        0.0436
     12  C16       13.8240   34.2220   61.7340 C.3     0  <0>0        0.0436
     13  C3         7.9790   35.3720   58.9390 C.2     0  <0>0        0.1332
     14  C2         6.7280   35.6420   59.3680 C.3     0  <0>0        0.1146
     15  C1         6.1310   35.4510   60.7380 C.3     0  <0>0        0.0203
     16  S2         5.9670   36.2870   57.8870 S.3     0  <0>0       -0.0358
     17  C4         7.3790   36.1380   56.8020 C.1     0  <0>0        0.0671
     18  N1         8.3120   35.6200   57.6360 N.2     0  <0>0       -0.3589
     19  S1         7.5170   36.5440   55.1450 S.2     0  <0>0        0.0307
     20  O1         8.2480   32.5870   59.3590 O.3     0  <0>0       -0.4712
     21  C11        7.3470   31.7900   60.1290 C.3     0  <0>0        0.2525
@<TRIPOS>BOND
     1    19    17    2
     2    17    18    2
     3    17    16    1
     4    18    13    2
     5    16    14    1
     6    13    14    1
     7    13     1    1
     8    20     6    1
     9    20    21    1
    10    14    15    1
    11     1     6   ar
    12     1     2   ar
    13     6     5   ar
    14     2     3   ar
    15     5     4   ar
    16     3     4   ar
    17     3    10    1
    18     4     7    1
    19    12     8    1
    20    10     9    1
    21     7     8    1
    22     8     9    1
    23     8    11    1
