@<TRIPOS>MOLECULE
ZINC00726508_replica-1.pdb
 24 26 0 0 0
SMALL
GASTEIGER

@<TRIPOS>ATOM
      1  C4        10.3540   35.2690   60.5930 C.3     0  <0>0        0.1516
      2  C5        10.1110   36.4480   61.1890 C.2     0  <0>0        0.0969
      3  N1         9.2280   37.3340   60.6380 N.2     0  <0>0       -0.4181
      4  C6         8.8750   37.2420   59.3190 C.2     0  <0>0        0.0928
      5  C7         9.0700   36.0910   58.6380 C.3     0  <0>0        0.1104
      6  C8         9.6680   34.8850   59.3160 C.3     0  <0>0        0.0525
      7  C15        8.7240   35.9860   57.2790 C.2     0  <0>0        0.1569
      8  O3         8.9050   34.9350   56.6970 O.2     0  <0>0       -0.2956
      9  C16        8.1370   37.1530   56.5320 C.3     0  <0>0        0.0654
     10  C17        8.6360   38.4540   57.1670 C.3     0  <0>0        0.0148
     11  C18        8.2590   38.4450   58.6520 C.3     0  <0>0        0.0553
     12  C19       10.8180   36.7980   62.4740 C.3     0  <0>0        0.0620
     13  C9         8.5710   33.9020   59.6350 C.ar    0  <0>0       -0.0207
     14  C14        7.4100   34.3370   60.2480 C.ar    0  <0>0       -0.0038
     15  C13        6.4040   33.4360   60.5410 C.ar    0  <0>0        0.0055
     16  C12        6.5570   32.1000   60.2210 C.ar    0  <0>0        0.0300
     17  C11        7.7190   31.6650   59.6080 C.ar    0  <0>0        0.0055
     18  I1         5.0320   30.7340   60.6650 I       0  <0>0       -0.0425
     19  C10        8.7220   32.5670   59.3100 C.ar    0  <0>0       -0.0038
     20  C3        11.2800   34.3730   61.1780 C.2     0  <0>0        0.3232
     21  O2        12.4680   34.4830   60.9370 O.2     0  <0>0       -0.2497
     22  O1        10.8460   33.3970   62.0020 O.3     0  <0>0       -0.4482
     23  C2        11.7040   33.0370   63.0880 C.3     0  <0>0        0.2086
     24  C1        11.8830   31.5170   63.1140 C.3     0  <0>0        0.0513
@<TRIPOS>BOND
     1     9    10    1
     2     9     7    1
     3     8     7    2
     4    10    11    1
     5     7     5    1
     6     5     6    1
     7     5     4    1
     8    11     4    1
     9    19    17   ar
    10    19    13   ar
    11     6    13    1
    12     6     1    1
    13     4     3    2
    14    17    16   ar
    15    13    14   ar
    16    16    15   ar
    17    16    18    1
    18    14    15   ar
    19     1    20    1
    20     1     2    1
    21     3     2    2
    22    21    20    2
    23    20    22    1
    24     2    12    1
    25    22    23    1
    26    23    24    1
