@<TRIPOS>MOLECULE
ZINC49564235_replica-1.pdb
 22 24 0 0 0
SMALL
GASTEIGER

@<TRIPOS>ATOM
      1  C8         7.4470   36.7950   58.0890 C.3     0  <0>0        0.0919
      2  C5         8.5170   36.4070   59.0770 C.ar    0  <0>0       -0.0046
      3  C4         9.3140   35.3040   58.8340 C.ar    0  <0>0       -0.0030
      4  C3        10.2970   34.9480   59.7390 C.ar    0  <0>0       -0.0045
      5  C2        10.4810   35.6960   60.8870 C.ar    0  <0>0       -0.0219
      6  C1        11.5510   35.3070   61.8750 C.3     0  <0>0        0.0310
      7  C7         9.6800   36.7950   61.1330 C.ar    0  <0>0       -0.0045
      8  C6         8.7000   37.1530   60.2260 C.ar    0  <0>0       -0.0030
      9  C9         8.1030   37.3330   56.8150 C.3     0  <0>0        0.0221
     10  C11        7.4140   38.5010   56.1050 C.3     0  <0>0        0.0020
     11  C10        8.7150   38.7340   56.8740 C.3     0  <0>0        0.0020
     12  N1         6.6360   35.6200   57.7600 N.pl3   0  <0>0       -0.3282
     13  H14        7.0560   34.7510   57.6650 H       0  <0>0        0.1471
     14  C12        5.2520   35.7520   57.5830 C.ar    0  <0>0        0.0794
     15  C17        4.7050   35.7100   56.3030 C.ar    0  <0>0        0.1539
     16  C16        3.3360   35.8350   56.1330 C.ar    0  <0>0        0.0678
     17  C15        2.5160   36.0130   57.2330 C.ar    0  <0>0        0.1433
     18  C14        3.0590   36.0610   58.5060 C.ar    0  <0>0        0.0311
     19  F1         1.1810   36.1390   57.0660 F       0  <0>0       -0.2041
     20  C13        4.4250   35.9310   58.6820 C.ar    0  <0>0        0.0197
     21  O1         5.5130   35.5410   55.2210 O.3     0  <0>0       -0.4701
     22  C18        5.0930   34.5930   54.2380 C.3     0  <0>0        0.2525
@<TRIPOS>BOND
     1    22    21    1
     2    21    15    1
     3    10     9    1
     4    10    11    1
     5    16    15   ar
     6    16    17   ar
     7    15    14   ar
     8     9    11    1
     9     9     1    1
    10    19    17    1
    11    17    18   ar
    12    14    12    1
    13    14    20   ar
    14    13    12    1
    15    12     1    1
    16     1     2    1
    17    18    20   ar
    18     3     2   ar
    19     3     4   ar
    20     2     8   ar
    21     4     5   ar
    22     8     7   ar
    23     5     7   ar
    24     5     6    1
