@<TRIPOS>MOLECULE
ZINC02563603_replica-1.pdb
 26 29 0 0 0
SMALL
GASTEIGER

@<TRIPOS>ATOM
      1  C3         3.5680   35.2750   55.7640 C.3     0  <0>0        0.0576
      2  C4         4.0090   34.0260   54.9610 C.3     0  <0>0        0.0073
      3  C5         5.4440   33.6790   55.4430 C.3     0  <0>0        0.0005
      4  C6         5.5010   34.3050   56.8430 C.3     0  <0>0        0.0007
      5  C7         4.7780   35.6580   56.6110 C.3     0  <0>0        0.0065
      6  C8         4.4860   36.2480   57.9770 C.3     0  <0>0        0.0004
      7  C9         5.8400   36.5540   58.6360 C.3     0  <0>0        0.0003
      8  C10        6.7160   35.3080   58.7360 C.3     0  <0>0        0.0038
      9  C11        6.8870   34.6190   57.3760 C.3     0  <0>0        0.0046
     10  C12        7.6680   33.3150   57.5730 C.3     0  <0>0        0.0254
     11  C13        8.9530   33.6020   58.3070 C.2     0  <0>0       -0.0345
     12  C14        9.1290   34.6500   59.0580 C.2     0  <0>0       -0.0455
     13  C15        8.0690   35.6770   59.3210 C.3     0  <0>0        0.0151
     14  C16        7.9470   35.8870   60.8330 C.3     0  <0>0        0.0074
     15  C17        9.3200   36.2410   61.4090 C.3     0  <0>0        0.0443
     16  C18       10.2840   35.0730   61.1950 C.3     0  <0>0        0.1728
     17  C19       10.4930   34.8530   59.6940 C.3     0  <0>0        0.0653
     18  C22        8.5170   36.9980   58.6920 C.3     0  <0>0        0.0040
     19  C23        5.6860   36.6030   55.8200 C.3     0  <0>0        0.0004
     20  O2        11.5580   35.3760   61.8220 O.3     0  <0>0       -0.4519
     21  C20       12.2470   34.3430   62.3310 C.2     0  <0>0        0.3174
     22  O3        11.6790   33.5020   62.9870 O.2     0  <0>0       -0.2501
     23  C21       13.7300   34.2330   62.0870 C.3     0  <0>0        0.1212
     24  C2         2.3970   34.9390   56.6510 C.2     0  <0>0        0.1507
     25  C1         1.3840   35.9990   56.9950 C.3     0  <0>0        0.0722
     26  O1         2.2700   33.8180   57.0850 O.2     0  <0>0       -0.2961
@<TRIPOS>BOND
     1     2     3    1
     2     2     1    1
     3     3     4    1
     4     1     5    1
     5     1    24    1
     6    19     5    1
     7     5     4    1
     8     5     6    1
     9    24    25    1
    10    24    26    2
    11     4     9    1
    12     9    10    1
    13     9     8    1
    14    10    11    1
    15     6     7    1
    16    11    12    2
    17     7     8    1
    18    18    13    1
    19     8    13    1
    20    12    13    1
    21    12    17    1
    22    13    14    1
    23    17    16    1
    24    14    15    1
    25    16    15    1
    26    16    20    1
    27    20    21    1
    28    23    21    1
    29    21    22    2
