@<TRIPOS>MOLECULE
ZINC17113061_replica-1.pdb
 23 25 0 0 0
SMALL
GASTEIGER

@<TRIPOS>ATOM
      1  C7        -0.7000   28.7580   53.6310 C.ar    0  <0>0        0.1348
      2  N1        -1.6530   29.6820   53.6220 N.ar    0  <0>0       -0.1396
      3  N2        -1.5100   30.7920   54.2020 N.ar    0  <0>0       -0.1253
      4  C8        -0.3950   31.1080   54.8480 C.ar    0  <0>0        0.1883
      5  S1         0.5500   29.6080   54.5900 S.2     0  <0>0       -0.0304
      6  N3        -0.0590   32.2670   55.5350 N.am    0  <0>0       -0.2592
      7  C9         0.2910   32.2020   56.8350 C.2     0  <0>0        0.2509
      8  O1         0.3110   31.1300   57.4070 O.2     0  <0>0       -0.2698
      9  H5        -0.0760   33.2370   55.0180 H       0  <0>0        0.1571
     10  C10        0.6500   33.4340   57.5660 C.ar    0  <0>0        0.0539
     11  C15        0.4880   33.4980   58.9520 C.ar    0  <0>0        0.0068
     12  C14        0.8240   34.6500   59.6300 C.ar    0  <0>0        0.0298
     13  C13        1.3220   35.7440   58.9380 C.ar    0  <0>0        0.1401
     14  C12        1.4850   35.6860   57.5620 C.ar    0  <0>0        0.0298
     15  F1         1.6510   36.8710   59.6070 F       0  <0>0       -0.2042
     16  C11        1.1520   34.5390   56.8750 C.ar    0  <0>0        0.0068
     17  C6        -0.6760   27.4110   53.0230 C.ar    0  <0>0        0.0258
     18  C1        -1.3160   27.1810   51.8040 C.ar    0  <0>0        0.0044
     19  C2        -1.2870   25.9230   51.2390 C.ar    0  <0>0        0.0297
     20  C3        -0.6310   24.8870   51.8840 C.ar    0  <0>0        0.1401
     21  C4         0.0030   25.1080   53.0960 C.ar    0  <0>0        0.0297
     22  F2        -0.6110   23.6550   51.3280 F       0  <0>0       -0.2042
     23  C5        -0.0170   26.3630   53.6680 C.ar    0  <0>0        0.0044
@<TRIPOS>BOND
     1    19    18   ar
     2    19    20   ar
     3    22    20    1
     4    18    17   ar
     5    20    21   ar
     6    17     1    1
     7    17    23   ar
     8    21    23   ar
     9     2     1   ar
    10     2     3   ar
    11     1     5   ar
    12     3     4   ar
    13     5     4   ar
    14     4     6    1
    15     9     6    1
    16     6     7   am
    17     7     8    2
    18     7    10    1
    19    16    14   ar
    20    16    10   ar
    21    14    13   ar
    22    10    11   ar
    23    13    15    1
    24    13    12   ar
    25    11    12   ar
