@<TRIPOS>MOLECULE
ZINC66161972_replica-1.pdb
 22 23 0 0 0
SMALL
GASTEIGER

@<TRIPOS>ATOM
      1  C8        -1.4480   26.5260   57.7170 C.3     0  <0>0        0.1351
      2  N1        -1.7920   27.8350   58.2800 N.pl3   0  <0>0       -0.3299
      3  H7        -1.9170   27.9330   59.2370 H       0  <0>0        0.1469
      4  C3        -1.9420   28.9390   57.4370 C.ar    0  <0>0        0.0415
      5  C2        -1.0820   30.0240   57.5540 C.ar    0  <0>0        0.0018
      6  C1         0.0120   30.0110   58.5900 C.3     0  <0>0        0.0332
      7  C7        -1.2360   31.1170   56.7230 C.ar    0  <0>0        0.0549
      8  C6        -2.2380   31.1260   55.7670 C.ar    0  <0>0        0.0112
      9 Cl         -0.1670   32.4770   56.8720 Cl      0  <0>0       -0.0825
     10  C5        -3.0940   30.0480   55.6500 C.ar    0  <0>0        0.0021
     11  C4        -2.9500   28.9540   56.4820 C.ar    0  <0>0        0.0140
     12  C9         0.0530   26.2800   57.8800 C.3     0  <0>0        0.2265
     13  O1         0.7700   27.0560   56.9180 O.3     0  <0>0       -0.4736
     14  C10        0.4580   26.8590   55.6100 C.ar    0  <0>0        0.1386
     15  C15        0.0430   27.9250   54.8250 C.ar    0  <0>0        0.0366
     16  C14       -0.2680   27.7230   53.4950 C.ar    0  <0>0       -0.0012
     17  C13       -0.1790   26.4560   52.9470 C.ar    0  <0>0       -0.0223
     18  C12        0.2270   25.3910   53.7290 C.ar    0  <0>0       -0.0012
     19  C11        0.5470   25.5890   55.0590 C.ar    0  <0>0        0.0366
     20  C16       -0.5260   26.2370   51.4980 C.3     0  <0>0        0.0224
     21  C17       -0.9040   24.7710   51.2800 C.3     0  <0>0        0.0047
     22  C18       -1.7080   27.1300   51.1160 C.3     0  <0>0        0.0047
@<TRIPOS>BOND
     1    22    20    1
     2    21    20    1
     3    20    17    1
     4    17    16   ar
     5    17    18   ar
     6    16    15   ar
     7    18    19   ar
     8    15    14   ar
     9    19    14   ar
    10    14    13    1
    11    10     8   ar
    12    10    11   ar
    13     8     7   ar
    14    11     4   ar
    15     7     9    1
    16     7     5   ar
    17    13    12    1
    18     4     5   ar
    19     4     2    1
    20     5     6    1
    21     1    12    1
    22     1     2    1
    23     2     3    1
