@<TRIPOS>MOLECULE
ZINC06819707_replica-1.pdb
 28 31 0 0 0
SMALL
GASTEIGER

@<TRIPOS>ATOM
      1  C8         9.1840   34.9960   59.7810 C.3     0  <0>0        0.0356
      2  C9         9.4470   36.2630   58.9640 C.3     0  <0>0        0.0458
      3  C10        8.4360   36.3630   57.8480 C.2     0  <0>0        0.0268
      4  C11        7.9160   35.2510   57.2850 C.2     0  <0>0        0.0261
      5  C12        6.9140   35.3760   56.1620 C.3     0  <0>0        0.0573
      6  C13        7.2630   36.5920   55.3010 C.3     0  <0>0        0.0942
      7  C14        7.5030   37.7780   56.1980 C.2     0  <0>0        0.2265
      8  O2         7.1970   38.8900   55.8240 O.2     0  <0>0       -0.2748
      9  N1         8.0570   37.6060   57.4100 N.am    0  <0>0       -0.2875
     10  C21        8.2860   33.9690   57.7210 C.2     0  <0>0        0.1706
     11  O3         7.8050   32.9920   57.1810 O.2     0  <0>0       -0.2916
     12  C22        9.2670   33.7850   58.8470 C.3     0  <0>0        0.0736
     13  H14        8.1910   38.3750   57.9860 H       0  <0>0        0.1545
     14  C5        10.2230   34.8710   60.8660 C.ar    0  <0>0       -0.0215
     15  C4        10.6260   33.6190   61.2950 C.ar    0  <0>0       -0.0011
     16  C3        11.5740   33.5020   62.2920 C.ar    0  <0>0        0.0366
     17  C2        12.1330   34.6400   62.8550 C.ar    0  <0>0        0.1387
     18  C7        11.7280   35.8950   62.4220 C.ar    0  <0>0        0.0366
     19  C6        10.7740   36.0070   61.4290 C.ar    0  <0>0       -0.0011
     20  O1        13.0690   34.5270   63.8330 O.3     0  <0>0       -0.4714
     21  C1        14.2340   33.7570   63.5300 C.3     0  <0>0        0.2525
     22  C15        5.5320   35.5490   56.7380 C.ar    0  <0>0       -0.0178
     23  C20        4.4750   35.8810   55.9120 C.ar    0  <0>0       -0.0031
     24  C19        3.2070   36.0400   56.4410 C.ar    0  <0>0        0.0111
     25  C18        2.9970   35.8650   57.7960 C.ar    0  <0>0        0.0577
     26  C17        4.0560   35.5320   58.6230 C.ar    0  <0>0        0.0111
     27 Cl          1.4050   36.0640   58.4610 Cl      0  <0>0       -0.0822
     28  C16        5.3210   35.3680   58.0930 C.ar    0  <0>0       -0.0031
@<TRIPOS>BOND
     1     6     5    1
     2     6     7    1
     3     8     7    2
     4    23    24   ar
     5    23    22   ar
     6     5    22    1
     7     5     4    1
     8     7     9   am
     9    24    25   ar
    10    22    28   ar
    11    11    10    2
    12     4    10    1
    13     4     3    2
    14     9     3    1
    15     9    13    1
    16    10    12    1
    17    25    27    1
    18    25    26   ar
    19     3     2    1
    20    28    26   ar
    21    12     1    1
    22     2     1    1
    23     1    14    1
    24    14    15   ar
    25    14    19   ar
    26    15    16   ar
    27    19    18   ar
    28    16    17   ar
    29    18    17   ar
    30    17    20    1
    31    21    20    1
