@<TRIPOS>MOLECULE
ZINC66936415_replica-1.pdb
 22 22 0 0 0
SMALL
GASTEIGER

@<TRIPOS>ATOM
      1  C6         9.7780   35.1810   60.5790 C.ar    0  <0>0        0.1220
      2  C7        10.4220   36.2470   61.1800 C.ar    0  <0>0        0.0204
      3  C8        11.4030   36.0190   62.1250 C.ar    0  <0>0        0.0078
      4  C9        11.7410   34.7170   62.4720 C.ar    0  <0>0        0.0328
      5  C10       11.0910   33.6480   61.8670 C.ar    0  <0>0        0.0078
      6  C11       10.1080   33.8840   60.9260 C.ar    0  <0>0        0.0204
      7  S1         8.5280   35.4770   59.3730 S.O2    0  <0>0        0.0602
      8  O2         7.3340   35.7670   60.0870 O.2     0  <0>0       -0.1530
      9  O3         8.6140   34.4170   58.4300 O.2     0  <0>0       -0.1530
     10  N1         8.9440   36.8620   58.5650 N.3     0  <0>0       -0.1797
     11  H12        9.8780   37.0950   58.4520 H       0  <0>0        0.1488
     12  C2         7.8990   37.7350   58.0220 C.3     0  <0>0        0.0894
     13  C1         8.5170   38.7060   57.0140 C.3     0  <0>0        0.0200
     14  C3         7.2520   38.5250   59.1620 C.3     0  <0>0        0.0200
     15  C4         6.8360   36.8830   57.3250 C.3     0  <0>0        0.1581
     16  O1         7.2400   36.6260   55.9790 O.3     0  <0>0       -0.3497
     17  C5         6.5220   35.5620   55.3500 C.3     0  <0>0        0.1742
     18  S2        12.9920   34.4220   63.6780 S.3     0  <0>0       -0.0144
     19  C12       14.3220   33.6190   62.7420 C.3     0  <0>0        0.4477
     20  F1        14.2800   34.0470   61.4100 F       0  <0>0       -0.1600
     21  F2        15.5580   33.9610   63.3020 F       0  <0>0       -0.1600
     22  F3        14.1560   32.2310   62.7910 F       0  <0>0       -0.1600
@<TRIPOS>BOND
     1    17    16    1
     2    16    15    1
     3    13    12    1
     4    15    12    1
     5    12    10    1
     6    12    14    1
     7     9     7    2
     8    11    10    1
     9    10     7    1
    10     7     8    2
    11     7     1    1
    12     1     6   ar
    13     1     2   ar
    14     6     5   ar
    15     2     3   ar
    16    20    19    1
    17     5     4   ar
    18     3     4   ar
    19     4    18    1
    20    19    22    1
    21    19    21    1
    22    19    18    1
