@<TRIPOS>MOLECULE
ZINC02803260_replica-1.pdb
 29 32 0 0 0
SMALL
GASTEIGER

@<TRIPOS>ATOM
      1  C5         6.3950   32.4400   59.3450 C.2     0  <0>0        0.1357
      2  C6         5.5310   33.4600   58.9240 C.3     0  <0>0        0.1245
      3  C7         5.9320   34.7720   59.0900 C.2     0  <0>0        0.2010
      4  N1         7.1100   35.0240   59.6430 N.2     0  <0>0       -0.3249
      5  C8         7.9090   34.0410   60.0270 C.1     0  <0>0        0.2358
      6  N2         7.5670   32.7720   59.8890 N.2     0  <0>0       -0.3284
      7  N3         9.1410   34.3530   60.6000 N.ar    0  <0>0       -0.1475
      8  C9         9.6800   35.5970   60.7060 C.ar    0  <0>0        0.1681
      9  C10       10.8750   35.4790   61.3230 C.ar    0  <0>0        0.0454
     10  C11       11.0880   34.1110   61.5980 C.ar    0  <0>0        0.1095
     11  N4        10.0410   33.4400   61.1650 N.ar    0  <0>0       -0.1541
     12  C17        5.0390   35.9040   58.6510 C.3     0  <0>0        0.4436
     13  F4         3.7120   35.4600   58.6110 F       0  <0>0       -0.1638
     14  F5         5.1490   36.9630   59.5580 F       0  <0>0       -0.1638
     15  F6         5.4250   36.3360   57.3790 F       0  <0>0       -0.1638
     16  C3         6.0130   31.0230   59.1900 C.ar    0  <0>0        0.0562
     17  C2         6.8150   29.9320   58.9720 C.ar    0  <0>0        0.0093
     18  C1         6.2290   28.6930   58.8640 C.ar    0  <0>0        0.0076
     19  C4         4.8770   28.5880   58.9630 C.ar    0  <0>0        0.0355
     20  S1         4.3890   30.2850   59.2290 S.2     0  <0>0       -0.0842
     21  C16        9.0530   36.8810   60.2290 C.3     0  <0>0        0.4358
     22  F1         7.8430   37.0870   60.9010 F       0  <0>0       -0.1644
     23  F2         9.9180   37.9490   60.4870 F       0  <0>0       -0.1644
     24  F3         8.8120   36.7980   58.8530 F       0  <0>0       -0.1644
     25  C12       12.2760   33.5340   62.2640 C.ar    0  <0>0        0.0489
     26  S2        12.4370   31.9810   63.1290 S.2     0  <0>0       -0.0849
     27  C15       14.1580   32.1210   63.5810 C.ar    0  <0>0        0.0355
     28  C14       14.4930   33.3270   63.0540 C.ar    0  <0>0        0.0075
     29  C13       13.5380   34.0520   62.3760 C.ar    0  <0>0        0.0086
@<TRIPOS>BOND
     1    15    12    1
     2    13    12    1
     3    12     3    1
     4    12    14    1
     5    24    21    1
     6    18    19   ar
     7    18    17   ar
     8     2     3    1
     9     2     1    1
    10    19    20   ar
    11    17    16   ar
    12     3     4    2
    13    16    20   ar
    14    16     1    1
    15     1     6    2
    16     4     5    2
    17     6     5    2
    18     5     7    1
    19    21    23    1
    20    21     8    1
    21    21    22    1
    22     7     8   ar
    23     7    11   ar
    24     8     9   ar
    25    11    10   ar
    26     9    10   ar
    27    10    25    1
    28    25    29   ar
    29    25    26   ar
    30    29    28   ar
    31    28    27   ar
    32    26    27   ar
