@<TRIPOS>MOLECULE
ZINC66092261_replica-1.pdb
 31 33 0 0 0
SMALL
GASTEIGER

@<TRIPOS>ATOM
      1  C9         4.4380   35.4470   57.6580 C.ar    0  <0>0        0.0540
      2  C10        3.3640   35.5620   58.5460 C.ar    0  <0>0        0.0058
      3  C11        2.0960   35.2200   58.1370 C.ar    0  <0>0        0.0145
      4  C12        1.8810   34.7590   56.8400 C.ar    0  <0>0        0.0450
      5  C13        2.9500   34.6430   55.9540 C.ar    0  <0>0        0.0145
      6  C14        4.2190   34.9890   56.3550 C.ar    0  <0>0        0.0058
      7  N2         0.5980   34.4140   56.4300 N.pl3   0  <0>0       -0.3253
      8  H13        0.1640   34.9160   55.7230 H       0  <0>0        0.1473
      9  C15       -0.0980   33.2940   57.0680 C.3     0  <0>0        0.1736
     10  C16        0.1770   32.0270   56.3000 C.2     0  <0>0        0.2425
     11  O2         0.9670   31.2150   56.7340 O.2     0  <0>0       -0.2733
     12  N3        -0.4530   31.7950   55.1320 N.am    0  <0>0       -0.3026
     13  H16       -1.0850   32.4450   54.7860 H       0  <0>0        0.1495
     14  C17       -0.1850   30.5640   54.3860 C.3     0  <0>0        0.0938
     15  C18       -1.4640   29.7280   54.3030 C.3     0  <0>0        0.0429
     16  C19       -1.2640   28.6020   53.3220 C.2     0  <0>0       -0.0468
     17  C24       -2.0370   28.6420   52.0370 C.3     0  <0>0        0.0218
     18  C23       -1.4080   27.6910   51.0150 C.3     0  <0>0        0.0047
     19  C22       -1.2040   26.3270   51.6870 C.3     0  <0>0        0.0050
     20  C21       -0.1330   26.4760   52.7690 C.3     0  <0>0        0.0254
     21  C20       -0.4410   27.6550   53.6450 C.2     0  <0>0       -0.0346
     22  C8         5.7990   35.8140   58.0930 C.2     0  <0>0        0.2528
     23  N1         6.4560   35.0370   58.9760 N.am    0  <0>0       -0.2534
     24  C1         5.8790   33.7570   59.3990 C.3     0  <0>0        0.1203
     25  O1         6.3280   36.8180   57.6560 O.2     0  <0>0       -0.2696
     26  C2         7.6890   35.4500   59.4910 C.ar    0  <0>0        0.0542
     27  C7         7.7370   36.3280   60.5650 C.ar    0  <0>0        0.0149
     28  C6         8.9570   36.7300   61.0740 C.ar    0  <0>0        0.0013
     29  C5        10.1290   36.2670   60.5070 C.ar    0  <0>0        0.0001
     30  C4        10.0860   35.3960   59.4340 C.ar    0  <0>0        0.0013
     31  C3         8.8700   34.9860   58.9230 C.ar    0  <0>0        0.0149
@<TRIPOS>BOND
     1    18    19    1
     2    18    17    1
     3    19    20    1
     4    17    16    1
     5    20    21    1
     6    16    21    2
     7    16    15    1
     8    15    14    1
     9    14    12    1
    10    13    12    1
    11    12    10   am
    12     8     7    1
    13     5     6   ar
    14     5     4   ar
    15    10    11    2
    16    10     9    1
    17     6     1   ar
    18     7     4    1
    19     7     9    1
    20     4     3   ar
    21    25    22    2
    22     1    22    1
    23     1     2   ar
    24    22    23   am
    25     3     2   ar
    26    31    30   ar
    27    31    26   ar
    28    23    24    1
    29    23    26    1
    30    30    29   ar
    31    26    27   ar
    32    29    28   ar
    33    27    28   ar
