@<TRIPOS>MOLECULE
ZINC06628790_replica-1.pdb
 24 27 0 0 0
SMALL
GASTEIGER

@<TRIPOS>ATOM
      1  C8         6.8930   36.1580   58.4260 C.2     0  <0>0        0.2252
      2  N1         6.4630   35.5380   59.5640 N.am    0  <0>0       -0.2563
      3  H1         7.0960   35.4010   60.2860 H       0  <0>0        0.1573
      4  C9         5.1890   35.1040   59.7270 C.2     0  <0>0        0.2386
      5  O2         4.8130   34.5520   60.7450 O.2     0  <0>0       -0.2739
      6  C10        4.2840   35.3520   58.5760 C.3     0  <0>0        0.1537
      7  C11        2.9290   35.0040   58.4890 C.2     0  <0>0       -0.0268
      8  C12        2.2750   35.3200   57.3380 C.2     0  <0>0        0.0023
      9  S1         3.4990   36.1120   56.3250 S.3     0  <0>0       -0.0639
     10  C13        4.8540   36.0050   57.4520 C.2     0  <0>0        0.1519
     11  N2         6.1140   36.3930   57.3840 N.2     0  <0>0       -0.3806
     12  C14        0.8410   35.0550   57.0050 C.3     0  <0>0        0.0324
     13  C15        0.2900   34.0350   58.0120 C.3     0  <0>0        0.0055
     14  C16        0.6850   34.4800   59.4230 C.3     0  <0>0        0.0047
     15  C17        2.1890   34.2980   59.6230 C.3     0  <0>0        0.0231
     16  C7         8.3050   36.5890   58.3550 C.2     0  <0>0        0.2392
     17  O1         8.6870   37.2700   57.4230 O.2     0  <0>0       -0.2824
     18  C6         9.2540   36.1910   59.4140 C.ar    0  <0>0        0.0429
     19  C1         9.4840   37.0360   60.5030 C.ar    0  <0>0        0.0038
     20  C2        10.3660   36.6570   61.4920 C.ar    0  <0>0        0.0068
     21  C3        11.0330   35.4460   61.4020 C.ar    0  <0>0        0.0346
     22  C4        10.8140   34.6060   60.3230 C.ar    0  <0>0        0.0068
     23 Br         12.2470   34.9370   62.7590 Br      0  <0>0       -0.0490
     24  C5         9.9290   34.9700   59.3300 C.ar    0  <0>0        0.0038
@<TRIPOS>BOND
     1     9     8    1
     2     9    10    1
     3    12     8    1
     4    12    13    1
     5     8     7    2
     6    11    10    2
     7    11     1    2
     8    17    16    2
     9    10     6    1
    10    13    14    1
    11    16     1    1
    12    16    18    1
    13     1     2    1
    14     7     6    1
    15     7    15    1
    16     6     4    1
    17    24    18   ar
    18    24    22   ar
    19    18    19   ar
    20    14    15    1
    21     2     4   am
    22     2     3    1
    23     4     5    2
    24    22    21   ar
    25    19    20   ar
    26    21    20   ar
    27    21    23    1
