@<TRIPOS>MOLECULE
ZINC11734738_replica-1.pdb
 21 22 0 0 0
SMALL
GASTEIGER

@<TRIPOS>ATOM
      1  C10        8.8540   36.0160   60.5970 C.3     0  <0>0        0.0560
      2  C9        10.3280   36.3320   60.8610 C.3     0  <0>0        0.0332
      3  C6        10.9770   35.1610   61.5540 C.ar    0  <0>0       -0.0217
      4  C5        10.4640   33.8890   61.3820 C.ar    0  <0>0       -0.0030
      5  C4        11.0570   32.8130   62.0160 C.ar    0  <0>0        0.0142
      6  C3        12.1680   33.0120   62.8260 C.ar    0  <0>0        0.0479
      7  C8        12.6800   34.2930   62.9960 C.ar    0  <0>0        0.0142
      8  C7        12.0860   35.3620   62.3550 C.ar    0  <0>0       -0.0030
      9  N1        12.7700   31.9280   63.4680 N.pl3   0  <0>0       -0.3041
     10  C1        11.9750   30.7440   63.8060 C.3     0  <0>0        0.1122
     11  C2        14.1940   31.9720   63.8040 C.3     0  <0>0        0.1122
     12  C11        7.9740   37.0090   61.3570 C.3     0  <0>0        0.1418
     13  O1         8.6070   37.3610   62.5890 O.3     0  <0>0       -0.3816
     14  H16        7.9900   37.5750   63.3020 H       0  <0>0        0.2105
     15  C12        8.5740   36.1240   59.1200 C.ar    0  <0>0       -0.0197
     16  C17        8.9090   35.0820   58.2750 C.ar    0  <0>0       -0.0033
     17  C16        8.6510   35.1820   56.9200 C.ar    0  <0>0        0.0111
     18  C15        8.0600   36.3230   56.4100 C.ar    0  <0>0        0.0577
     19  C14        7.7260   37.3660   57.2570 C.ar    0  <0>0        0.0111
     20 Cl          7.7380   36.4480   54.7090 Cl      0  <0>0       -0.0822
     21  C13        7.9770   37.2630   58.6120 C.ar    0  <0>0       -0.0033
@<TRIPOS>BOND
     1    20    18    1
     2    18    17   ar
     3    18    19   ar
     4    17    16   ar
     5    19    21   ar
     6    16    15   ar
     7    21    15   ar
     8    15     1    1
     9     1     2    1
    10     1    12    1
    11     2     3    1
    12    12    13    1
    13     4     3   ar
    14     4     5   ar
    15     3     8   ar
    16     5     6   ar
    17     8     7   ar
    18    13    14    1
    19     6     7   ar
    20     6     9    1
    21     9    11    1
    22     9    10    1
