@<TRIPOS>MOLECULE
ZINC59250224_replica-1.pdb
 27 28 0 0 0
SMALL
GASTEIGER

@<TRIPOS>ATOM
      1  C3        13.9820   33.5450   63.6890 C.ar    0  <0>0        0.1717
      2  C4        12.9720   34.2000   63.0100 C.ar    0  <0>0        0.0416
      3  C5        11.9450   33.4630   62.4110 C.ar    0  <0>0        0.0220
      4  C6        11.9460   32.0670   62.5030 C.ar    0  <0>0        0.0008
      5  C7        12.9560   31.4220   63.1830 C.ar    0  <0>0        0.0190
      6  C8        13.9780   32.1540   63.7730 C.ar    0  <0>0        0.1639
      7  C12       10.8680   34.1540   61.6860 C.2     0  <0>0        0.0989
      8  N1        11.1020   34.6760   60.5140 N.2     0  <0>0       -0.2442
      9  C13       10.1320   35.4100   59.8870 C.ar    0  <0>0        0.0776
     10  C18        9.7150   36.6290   60.4310 C.ar    0  <0>0       -0.0042
     11  C17        8.7410   37.3740   59.7970 C.ar    0  <0>0       -0.0026
     12  C19       10.3340   37.1330   61.7090 C.3     0  <0>0        0.0326
     13  C16        8.1630   36.9160   58.6290 C.ar    0  <0>0        0.0062
     14  C15        8.5660   35.6980   58.0770 C.ar    0  <0>0        0.0771
     15  C14        9.5520   34.9430   58.7080 C.ar    0  <0>0        0.0252
     16  C20        7.9470   35.2100   56.8270 C.2     0  <0>0        0.3414
     17  O3         8.1980   34.0930   56.4200 O.2     0  <0>0       -0.2449
     18  O4         7.1050   36.0040   56.1380 O.3     0  <0>0       -0.4413
     19  C21        7.5930   36.5640   54.9180 C.3     0  <0>0        0.2560
     20  O1        14.9820   34.2580   64.2720 O.3     0  <0>0       -0.4724
     21  C2        16.2640   34.2130   63.6400 C.3     0  <0>0        0.2057
     22  C1        17.3500   34.5380   64.6670 C.3     0  <0>0        0.0512
     23  C9        12.9540   29.9190   63.2820 C.3     0  <0>0        0.0555
     24  C10       11.9900   29.4870   64.3570 C.2     0  <0>0       -0.0213
     25  C11       12.4300   29.2090   65.5590 C.2     0  <0>0       -0.0046
     26  O2        14.9740   31.5130   64.4370 O.3     0  <0>0       -0.5031
     27  H8        14.6640   30.9250   65.1390 H       0  <0>0        0.2923
@<TRIPOS>BOND
     1    19    18    1
     2    18    16    1
     3    17    16    2
     4    16    14    1
     5    14    13   ar
     6    14    15   ar
     7    13    11   ar
     8    15     9   ar
     9    11    10   ar
    10     9    10   ar
    11     9     8    1
    12    10    12    1
    13     8     7    2
    14     7     3    1
    15     3     4   ar
    16     3     2   ar
    17     4     5   ar
    18     2     1   ar
    19     5    23    1
    20     5     6   ar
    21    23    24    1
    22    21    20    1
    23    21    22    1
    24     1     6   ar
    25     1    20    1
    26     6    26    1
    27    24    25    2
    28    26    27    1
