@<TRIPOS>MOLECULE
ZINC57454760_replica-1.pdb
 25 26 0 0 0
SMALL
GASTEIGER

@<TRIPOS>ATOM
      1  C8        10.1530   35.7370   60.3850 C.ar    0  <0>0        0.0534
      2  C9         9.5790   37.0120   60.3920 C.ar    0  <0>0        0.0059
      3  C10        8.8900   37.4610   59.2880 C.ar    0  <0>0        0.0182
      4  C11        8.7640   36.6460   58.1660 C.ar    0  <0>0        0.0910
      5  C12        9.3340   35.3760   58.1570 C.ar    0  <0>0        0.0182
      6  C13       10.0300   34.9250   59.2550 C.ar    0  <0>0        0.0059
      7  C7        10.8930   35.2540   61.5660 C.2     0  <0>0        0.2458
      8  N1        11.2380   33.9550   61.6600 N.am    0  <0>0       -0.3025
      9  H14       11.0000   33.3370   60.9520 H       0  <0>0        0.1497
     10  O1        11.1920   36.0280   62.4540 O.2     0  <0>0       -0.2701
     11  C3        11.9730   33.4750   62.8340 C.3     0  <0>0        0.0718
     12  C2        11.2540   32.2610   63.4250 C.3     0  <0>0        0.0196
     13  C1        10.1850   31.7750   62.4450 C.3     0  <0>0        0.0017
     14  C4        13.3910   33.0770   62.4190 C.3     0  <0>0        0.0180
     15  C5        14.2680   34.3270   62.3360 C.3     0  <0>0        0.0017
     16  C6        13.9740   32.1130   63.4550 C.3     0  <0>0        0.0017
     17  N2         8.0660   37.1020   57.0530 N.pl3   0  <0>0       -0.0961
     18  S1         6.8210   36.2040   56.4320 S.O2    0  <0>0        0.0985
     19  O2         5.9130   37.1220   55.8390 O.2     0  <0>0       -0.1478
     20  O3         7.4140   35.1400   55.7000 O.2     0  <0>0       -0.1478
     21  C14        5.9780   35.4690   57.7930 C.ar    0  <0>0        0.1565
     22  S2         5.6580   33.7430   58.1200 S.2     0  <0>0       -0.0664
     23  C17        4.7810   33.9370   59.6630 C.ar    0  <0>0        0.0368
     24  C16        4.7860   35.2840   59.8210 C.ar    0  <0>0        0.0089
     25  C15        5.3990   36.0690   58.8630 C.ar    0  <0>0        0.0274
@<TRIPOS>BOND
     1    20    18    2
     2    19    18    2
     3    18    17    1
     4    18    21    1
     5    17     4    1
     6    21    22   ar
     7    21    25   ar
     8    22    23   ar
     9     5     4   ar
    10     5     6   ar
    11     4     3   ar
    12    25    24   ar
    13     6     1   ar
    14     3     2   ar
    15    23    24   ar
    16     1     2   ar
    17     1     7    1
    18     9     8    1
    19     7     8   am
    20     7    10    2
    21     8    11    1
    22    15    14    1
    23    14    11    1
    24    14    16    1
    25    13    12    1
    26    11    12    1
