@<TRIPOS>MOLECULE
ZINC20605647_replica-1.pdb
 25 27 0 0 0
SMALL
GASTEIGER

@<TRIPOS>ATOM
      1  N1         7.0240   34.1830   56.5610 N.am    0  <0>0       -0.2485
      2  C3         7.7790   34.9080   57.4610 C.2     0  <0>0        0.1774
      3  C4         7.8120   36.3090   57.3280 C.3     0  <0>0        0.1698
      4  C5         8.5650   37.0720   58.2220 C.2     0  <0>0        0.0681
      5  C6         9.2530   36.4190   59.2100 C.2     0  <0>0        0.0331
      6  C7         9.1820   35.0240   59.2920 C.2     0  <0>0        0.1383
      7  N2         8.4620   34.3170   58.4250 N.2     0  <0>0       -0.3898
      8  C13        7.0390   36.9250   56.2360 C.2     0  <0>0        0.2391
      9  O1         7.0360   38.1350   56.0780 O.2     0  <0>0       -0.2739
     10  N3         6.3410   36.1240   55.4180 N.am    0  <0>0       -0.2662
     11  C14        6.3340   34.8160   55.5730 C.2     0  <0>0        0.1457
     12  S2         5.3880   33.8420   54.4520 S.2     0  <0>0       -0.0179
     13  H9         5.7630   36.5840   54.6020 H       0  <0>0        0.1565
     14  C8         9.9240   34.3230   60.3560 C.ar    0  <0>0        0.0598
     15  S1         9.6070   32.7220   61.0800 S.2     0  <0>0       -0.0729
     16  C11       10.9610   32.6990   62.2440 C.ar    0  <0>0        0.0870
     17  C10       11.5590   33.9000   62.0090 C.ar    0  <0>0        0.0186
     18 Cl         11.4020   31.4650   63.3820 Cl      0  <0>0       -0.0752
     19  C9        11.0350   34.7320   61.0480 C.ar    0  <0>0        0.0105
     20  C12        8.6190   38.5750   58.1050 C.3     0  <0>0        0.4159
     21  F1         7.3280   39.0990   58.2340 F       0  <0>0       -0.1661
     22  F2         9.4360   39.0920   59.1150 F       0  <0>0       -0.1661
     23  F3         9.1410   38.9260   56.8550 F       0  <0>0       -0.1661
     24  C2         6.9660   32.7230   56.6680 C.3     0  <0>0        0.0993
     25  C1         5.8490   32.3270   57.6360 C.3     0  <0>0        0.0237
@<TRIPOS>BOND
     1    12    11    2
     2    13    10    1
     3    10    11    1
     4    10     8   am
     5    11     1    1
     6     9     8    2
     7     8     3    1
     8     1    24    1
     9     1     2    1
    10    24    25    1
    11    23    20    1
    12     3     2    1
    13     3     4    1
    14     2     7    2
    15    20     4    1
    16    20    21    1
    17    20    22    1
    18     4     5    2
    19     7     6    2
    20     5     6    1
    21     6    14    1
    22    14    19   ar
    23    14    15   ar
    24    19    17   ar
    25    15    16   ar
    26    17    16   ar
    27    16    18    1
