@<TRIPOS>MOLECULE
ZINC54465995_replica-1.pdb
 20 21 0 0 0
SMALL
GASTEIGER

@<TRIPOS>ATOM
      1  C5         7.7510   35.7080   56.1670 C.3     0  <0>0        0.1437
      2  C4         6.3680   35.0660   56.2950 C.3     0  <0>0        0.1300
      3  C2         5.5170   35.4430   55.0810 C.3     0  <0>0        0.0133
      4  C1         5.1750   34.1810   54.2860 C.3     0  <0>0        0.0007
      5  C3         4.2250   36.1130   55.5520 C.3     0  <0>0        0.0007
      6  C14        6.5130   33.5670   56.3610 C.2     0  <0>0        0.3193
      7  O2         7.5080   33.0380   55.9280 O.2     0  <0>0       -0.2500
      8  O3         5.5360   32.8220   56.9000 O.3     0  <0>0       -0.4443
      9  C15        4.9480   33.3010   58.1110 C.3     0  <0>0        0.2556
     10  C6         7.9720   36.6560   57.3170 C.ar    0  <0>0        0.0117
     11  C9         8.8180   36.2700   58.4370 C.ar    0  <0>0        0.0048
     12  C8         8.9460   37.2520   59.4440 C.ar    0  <0>0        0.0292
     13  C10        9.5220   35.0600   58.6390 C.ar    0  <0>0        0.0003
     14  S1         7.9430   38.5900   58.8520 S.2     0  <0>0       -0.0867
     15  C13        9.7140   37.0500   60.5700 C.ar    0  <0>0        0.0065
     16  C7         7.3870   37.8630   57.3210 C.ar    0  <0>0        0.0335
     17  C12       10.3780   35.8500   60.7350 C.ar    0  <0>0        0.0005
     18  C11       10.2730   34.8710   59.7570 C.ar    0  <0>0        0.0000
     19  O1         7.8310   36.4250   54.9350 O.3     0  <0>0       -0.3795
     20  H15        6.9770   36.5620   54.5030 H       0  <0>0        0.2108
@<TRIPOS>BOND
     1     4     3    1
     2    20    19    1
     3    19     1    1
     4     3     5    1
     5     3     2    1
     6     7     6    2
     7     1     2    1
     8     1    10    1
     9     2     6    1
    10     6     8    1
    11     8     9    1
    12    10    16   ar
    13    10    11   ar
    14    16    14   ar
    15    11    13   ar
    16    11    12   ar
    17    13    18   ar
    18    14    12   ar
    19    12    15   ar
    20    18    17   ar
    21    15    17   ar
