@<TRIPOS>MOLECULE
ZINC05517994_replica-1.pdb
 32 34 0 0 0
SMALL
GASTEIGER

@<TRIPOS>ATOM
      1  C12        8.7860   37.2020   60.1940 C.3     0  <0>0       -0.0146
      2  C11        8.7010   38.2230   59.0580 C.3     0  <0>0       -0.0806
      3  N1         7.3090   38.2940   58.5750 N.4     0  <0>0        0.3865
      4  H30        6.6730   38.0390   59.3400 H       0  <0>0       -0.0840
      5  H31        7.1060   39.2510   58.2660 H       0  <0>0       -0.0840
      6  C10        7.1120   37.3650   57.4460 C.3     0  <0>0       -0.0543
      7  C7         5.9930   36.4120   57.7810 C.ar    0  <0>0       -0.0435
      8  C6         5.3960   36.4610   59.0270 C.ar    0  <0>0       -0.0032
      9  C5         4.3700   35.5890   59.3380 C.ar    0  <0>0        0.0365
     10  C4         3.9390   34.6640   58.3980 C.ar    0  <0>0        0.1384
     11  C9         4.5400   34.6180   57.1490 C.ar    0  <0>0        0.0365
     12  C8         5.5620   35.4950   56.8410 C.ar    0  <0>0       -0.0032
     13  O1         2.9310   33.8050   58.7010 O.3     0  <0>0       -0.4792
     14  C2         2.1440   34.1110   59.8540 C.3     0  <0>0        0.1661
     15  C1         0.7260   34.4890   59.4180 C.3     0  <0>0        0.0472
     16  C3         2.0860   32.8860   60.7700 C.3     0  <0>0        0.0472
     17  C13        9.6890   36.0420   59.7700 C.3     0  <0>0        0.0425
     18  C14        8.8420   34.8420   59.4330 C.ar    0  <0>0       -0.0183
     19  C19        7.9350   34.3570   60.3570 C.ar    0  <0>0       -0.0008
     20  C18        7.1570   33.2570   60.0510 C.ar    0  <0>0        0.0366
     21  C17        7.2860   32.6390   58.8150 C.ar    0  <0>0        0.1387
     22  C16        8.1970   33.1280   57.8890 C.ar    0  <0>0        0.0366
     23  C15        8.9680   34.2330   58.1990 C.ar    0  <0>0       -0.0008
     24  O2         6.5210   31.5580   58.5110 O.3     0  <0>0       -0.4714
     25  C20        5.3460   31.3530   59.2970 C.3     0  <0>0        0.2525
     26  C21       10.6230   35.6940   60.9020 C.ar    0  <0>0       -0.0184
     27  C26       10.7950   36.5750   61.9520 C.ar    0  <0>0       -0.0017
     28  C25       11.6510   36.2560   62.9890 C.ar    0  <0>0        0.0293
     29  C24       12.3360   35.0540   62.9750 C.ar    0  <0>0        0.1401
     30  C23       12.1630   34.1720   61.9230 C.ar    0  <0>0        0.0293
     31  F1        13.1730   34.7420   63.9900 F       0  <0>0       -0.2042
     32  C22       11.3040   34.4900   60.8890 C.ar    0  <0>0       -0.0017
@<TRIPOS>BOND
     1    12    11   ar
     2    12     7   ar
     3    11    10   ar
     4     6     7    1
     5     6     3    1
     6     7     8   ar
     7    22    23   ar
     8    22    21   ar
     9    23    18   ar
    10     5     3    1
    11    10    13    1
    12    10     9   ar
    13    24    21    1
    14    24    25    1
    15     3     2    1
    16     3     4    1
    17    13    14    1
    18    21    20   ar
    19     8     9   ar
    20     2     1    1
    21    15    14    1
    22    18    17    1
    23    18    19   ar
    24    17     1    1
    25    17    26    1
    26    14    16    1
    27    20    19   ar
    28    32    26   ar
    29    32    30   ar
    30    26    27   ar
    31    30    29   ar
    32    27    28   ar
    33    29    28   ar
    34    29    31    1
