@<TRIPOS>MOLECULE
ZINC21225386_replica-1.pdb
 37 41 0 0 0
SMALL
GASTEIGER

@<TRIPOS>ATOM
      1  C8        -1.5060   30.0320   56.0230 C.3     0  <0>0        0.1183
      2  C9        -0.2930   30.7140   56.6130 C.2     0  <0>0        0.0436
      3  C10        0.1380   30.5980   57.8790 C.2     0  <0>0        0.0262
      4  C11        1.4020   31.3140   58.3280 C.3     0  <0>0        0.0458
      5  C12        1.5460   32.6350   57.5730 C.3     0  <0>0        0.0357
      6  C13        1.6260   32.3120   56.0760 C.3     0  <0>0        0.0736
      7  C14        0.4060   31.5290   55.6920 C.2     0  <0>0        0.1722
      8  O1         0.0040   31.5960   54.5460 O.2     0  <0>0       -0.2916
      9  N1        -0.4700   29.8680   58.8490 N.pl3   0  <0>0       -0.3150
     10  C25       -0.9180   28.5600   58.6940 C.ar    0  <0>0        0.0614
     11  C26       -0.3890   27.5050   59.4170 C.ar    0  <0>0        0.0158
     12  C27       -0.9140   26.2350   59.2460 C.ar    0  <0>0        0.0014
     13  C28       -1.9600   26.0270   58.3650 C.ar    0  <0>0        0.0013
     14  C29       -2.4770   27.0790   57.6290 C.ar    0  <0>0        0.0156
     15  C30       -1.9390   28.3470   57.7800 C.ar    0  <0>0        0.0586
     16  N2        -2.3780   29.4160   57.0030 N.pl3   0  <0>0       -0.3262
     17  H27       -0.6380   30.3070   59.8440 H       0  <0>0        0.1520
     18  H32       -3.4010   29.7930   57.1430 H       0  <0>0        0.1474
     19  C15        2.8040   33.3380   58.0120 C.ar    0  <0>0       -0.0185
     20  C20        3.9550   33.2310   57.2550 C.ar    0  <0>0        0.0358
     21  C19        5.1120   33.8810   57.6540 C.ar    0  <0>0        0.1721
     22  C18        5.1130   34.6330   58.8260 C.ar    0  <0>0        0.1720
     23  C17        3.9580   34.7320   59.5840 C.ar    0  <0>0        0.0397
     24  C16        2.8060   34.0850   59.1760 C.ar    0  <0>0       -0.0009
     25  O2         6.2430   33.7800   56.9080 O.3     0  <0>0       -0.4684
     26  C21        6.2190   34.3760   55.6100 C.3     0  <0>0        0.2526
     27  O3         6.2470   35.2690   59.2260 O.3     0  <0>0       -0.4761
     28  C22        6.3900   36.6390   58.8460 C.3     0  <0>0        0.1663
     29  C23        6.2810   37.5260   60.0890 C.3     0  <0>0        0.0472
     30  C24        7.7560   36.8470   58.1900 C.3     0  <0>0        0.0472
     31  C7        -1.0390   28.9750   55.0560 C.ar    0  <0>0       -0.0042
     32  C2        -1.5940   28.8990   53.7940 C.ar    0  <0>0       -0.0240
     33  C1        -2.6680   29.8730   53.3820 C.3     0  <0>0        0.0308
     34  C3        -1.1650   27.9290   52.9070 C.ar    0  <0>0       -0.0045
     35  C4        -0.1800   27.0360   53.2830 C.ar    0  <0>0       -0.0003
     36  C5         0.3760   27.1110   54.5470 C.ar    0  <0>0       -0.0003
     37  C6        -0.0500   28.0840   55.4320 C.ar    0  <0>0       -0.0027
@<TRIPOS>BOND
     1    34    35   ar
     2    34    32   ar
     3    35    36   ar
     4    33    32    1
     5    32    31   ar
     6     8     7    2
     7    36    37   ar
     8    31    37   ar
     9    31     1    1
    10    26    25    1
    11     7     6    1
    12     7     2    1
    13     1     2    1
    14     1    16    1
    15     6     5    1
    16     2     3    2
    17    25    21    1
    18    16    18    1
    19    16    15    1
    20    20    21   ar
    21    20    19   ar
    22     5    19    1
    23     5     4    1
    24    14    15   ar
    25    14    13   ar
    26    21    22   ar
    27    15    10   ar
    28     3     4    1
    29     3     9    1
    30    19    24   ar
    31    30    28    1
    32    13    12   ar
    33    10     9    1
    34    10    11   ar
    35    22    27    1
    36    22    23   ar
    37    28    27    1
    38    28    29    1
    39     9    17    1
    40    24    23   ar
    41    12    11   ar
