@<TRIPOS>MOLECULE
ZINC65655588_replica-1.pdb
 26 27 0 0 0
SMALL
GASTEIGER

@<TRIPOS>ATOM
      1  C3         6.9190   36.1610   55.8050 C.2     0  <0>0        0.3357
      2  O1         7.5570   36.3240   54.7930 O.2     0  <0>0       -0.2482
      3  C2         5.4600   35.7910   55.7250 C.3     0  <0>0        0.1740
      4  C1         5.3090   34.4670   54.9740 C.3     0  <0>0        0.0334
      5  N1         4.9170   35.6490   57.0790 N.am    0  <0>0       -0.2624
      6  C15        3.6310   35.9700   57.3270 C.2     0  <0>0        0.4018
      7  O4         2.9230   36.3770   56.4270 O.2     0  <0>0       -0.2264
      8  H14        5.4830   35.3250   57.7970 H       0  <0>0        0.1532
      9  O5         3.1330   35.8400   58.5700 O.3     0  <0>0       -0.4419
     10  C16        2.6460   34.5500   58.9430 C.3     0  <0>0        0.1378
     11  C17        3.5530   33.9540   60.0230 C.3     0  <0>0        0.0437
     12  C18        1.2230   34.6790   59.4880 C.3     0  <0>0        0.0437
     13  C19        2.6420   33.6330   57.7180 C.3     0  <0>0        0.0437
     14  O2         7.5070   36.3100   57.0020 O.3     0  <0>0       -0.4386
     15  C4         8.5220   35.3650   57.3480 C.3     0  <0>0        0.2474
     16  C5         9.1400   35.7510   58.6670 C.ar    0  <0>0        0.0247
     17  C10        8.8540   36.9800   59.2320 C.ar    0  <0>0       -0.0004
     18  C9         9.4180   37.3330   60.4430 C.ar    0  <0>0       -0.0002
     19  C8        10.2750   36.4600   61.0870 C.ar    0  <0>0       -0.0000
     20  C7        10.5660   35.2330   60.5200 C.ar    0  <0>0       -0.0002
     21  C6         9.9980   34.8790   59.3100 C.ar    0  <0>0       -0.0004
     22  C11        7.9120   33.9920   57.4630 C.ar    0  <0>0        0.1672
     23  O3         6.8930   33.6490   58.2680 O.2     0  <0>0       -0.4507
     24  C14        6.6120   32.3470   58.1060 C.ar    0  <0>0        0.1793
     25  C13        7.4620   31.8390   57.1950 C.ar    0  <0>0        0.0436
     26  C12        8.3000   32.8990   56.7800 C.ar    0  <0>0        0.0402
@<TRIPOS>BOND
     1     2     1    2
     2     4     3    1
     3     3     1    1
     4     3     5    1
     5     1    14    1
     6     7     6    2
     7    26    25   ar
     8    26    22   ar
     9    14    15    1
    10     5     6   am
    11     5     8    1
    12    25    24   ar
    13     6     9    1
    14    15    22    1
    15    15    16    1
    16    22    23   ar
    17    13    10    1
    18    24    23   ar
    19     9    10    1
    20    16    17   ar
    21    16    21   ar
    22    10    12    1
    23    10    11    1
    24    17    18   ar
    25    21    20   ar
    26    18    19   ar
    27    20    19   ar
