@<TRIPOS>MOLECULE
ZINC13468983_replica-1.pdb
 26 27 0 0 0
SMALL
GASTEIGER

@<TRIPOS>ATOM
      1  N1         7.4430   35.9490   58.7170 N.am    0  <0>0       -0.3022
      2  C11        6.9700   35.2900   57.6400 C.2     0  <0>0        0.2235
      3  O1         7.6040   35.2850   56.6060 O.2     0  <0>0       -0.2751
      4  H14        6.9350   35.9520   59.5430 H       0  <0>0        0.1497
      5  C4         8.7210   36.6590   58.6380 C.3     0  <0>0        0.0940
      6  C2         8.4770   38.1650   58.7600 C.3     0  <0>0        0.0222
      7  C1         8.5640   38.8090   57.3750 C.3     0  <0>0        0.0020
      8  C3         7.0850   38.4100   59.3490 C.3     0  <0>0        0.0020
      9  C5         9.6190   36.2040   59.7600 C.ar    0  <0>0       -0.0044
     10  C10        9.8330   37.0270   60.8490 C.ar    0  <0>0       -0.0004
     11  C9        10.6560   36.6100   61.8780 C.ar    0  <0>0        0.0294
     12  C8        11.2650   35.3690   61.8180 C.ar    0  <0>0        0.1401
     13  C7        11.0490   34.5450   60.7260 C.ar    0  <0>0        0.0294
     14  F1        12.0680   34.9600   62.8240 F       0  <0>0       -0.2042
     15  C6        10.2210   34.9610   59.7000 C.ar    0  <0>0       -0.0004
     16  C12        5.6540   34.5590   57.7200 C.3     0  <0>0        0.1007
     17  C13        4.5070   35.5580   57.5600 C.3     0  <0>0        0.1347
     18  C14        3.3550   35.1440   58.4410 C.ar    0  <0>0       -0.0113
     19  C19        3.5280   34.1450   59.3810 C.ar    0  <0>0       -0.0037
     20  C18        2.4730   33.7670   60.1890 C.ar    0  <0>0       -0.0003
     21  C17        1.2440   34.3880   60.0570 C.ar    0  <0>0       -0.0000
     22  C16        1.0720   35.3880   59.1180 C.ar    0  <0>0       -0.0003
     23  C15        2.1290   35.7690   58.3140 C.ar    0  <0>0       -0.0037
     24  C20        4.0560   35.5800   56.1220 C.2     0  <0>0        0.3688
     25  O2         4.0170   36.6250   55.5170 O.co2   0  <0>0       -0.2453
     26  O3         3.7050   34.4370   55.5110 O.co2   0  <0>0       -0.2453
@<TRIPOS>BOND
     1    26    24   ar
     2    25    24   ar
     3    24    17    1
     4     3     2    2
     5     7     6    1
     6    17    16    1
     7    17    18    1
     8     2    16    1
     9     2     1   am
    10    23    18   ar
    11    23    22   ar
    12    18    19   ar
    13     5     1    1
    14     5     6    1
    15     5     9    1
    16     1     4    1
    17     6     8    1
    18    22    21   ar
    19    19    20   ar
    20    15     9   ar
    21    15    13   ar
    22     9    10   ar
    23    21    20   ar
    24    13    12   ar
    25    10    11   ar
    26    12    11   ar
    27    12    14    1
