@<TRIPOS>MOLECULE
ZINC49896536_replica-1.pdb
 23 24 0 0 0
SMALL
GASTEIGER

@<TRIPOS>ATOM
      1  N1        -1.1650   29.2840   53.5280 N.pl3   0  <0>0       -0.3305
      2  H11       -0.3230   29.5920   53.8950 H       0  <0>0        0.1469
      3  C9        -2.4010   30.0180   53.8120 C.3     0  <0>0        0.1213
      4  C8        -2.2420   30.7980   55.1170 C.3     0  <0>0        0.1521
      5  C5        -2.1650   29.8340   56.2730 C.ar    0  <0>0        0.0059
      6  C4        -3.0950   28.8180   56.3880 C.ar    0  <0>0       -0.0022
      7  C3        -3.0230   27.9320   57.4470 C.ar    0  <0>0       -0.0045
      8  C2        -2.0220   28.0640   58.3910 C.ar    0  <0>0       -0.0219
      9  C1        -1.9450   27.0990   59.5460 C.3     0  <0>0        0.0310
     10  C7        -1.0970   29.0840   58.2790 C.ar    0  <0>0       -0.0045
     11  C6        -1.1650   29.9660   57.2170 C.ar    0  <0>0       -0.0022
     12  O1        -1.0450   31.5760   55.0650 O.3     0  <0>0       -0.3783
     13  H16       -0.5310   31.4530   54.2540 H       0  <0>0        0.2109
     14  C10       -1.2010   28.1390   52.7270 C.ar    0  <0>0        0.0486
     15  C15       -0.4790   27.0110   53.0940 C.ar    0  <0>0        0.0845
     16  C14       -0.5210   25.8790   52.3030 C.ar    0  <0>0        0.0051
     17  C13       -1.2710   25.8730   51.1410 C.ar    0  <0>0        0.0000
     18  C12       -1.9870   26.9970   50.7700 C.ar    0  <0>0        0.0012
     19  C11       -1.9540   28.1290   51.5600 C.ar    0  <0>0        0.0142
     20  C16        0.3450   27.0190   54.3550 C.3     0  <0>0        0.4197
     21  F1        -0.4980   27.1760   55.4610 F       0  <0>0       -0.1658
     22  F2         1.0400   25.8110   54.4670 F       0  <0>0       -0.1658
     23  F3         1.2560   28.0790   54.3100 F       0  <0>0       -0.1658
@<TRIPOS>BOND
     1    18    17   ar
     2    18    19   ar
     3    17    16   ar
     4    19    14   ar
     5    16    15   ar
     6    14    15   ar
     7    14     1    1
     8    15    20    1
     9     1     3    1
    10     1     2    1
    11     3     4    1
    12    13    12    1
    13    23    20    1
    14    20    22    1
    15    20    21    1
    16    12     4    1
    17     4     5    1
    18     5     6   ar
    19     5    11   ar
    20     6     7   ar
    21    11    10   ar
    22     7     8   ar
    23    10     8   ar
    24     8     9    1
