@<TRIPOS>MOLECULE
ZINC59739900_replica-1.pdb
 25 27 0 0 0
SMALL
GASTEIGER

@<TRIPOS>ATOM
      1  C11        0.2900   32.0780   56.0260 C.2     0  <0>0        0.2378
      2  N1         1.4930   32.6070   56.0580 N.2     0  <0>0       -0.3261
      3  H2        -1.3620   32.4370   57.2420 H       0  <0>0        0.1783
      4  C12        1.5690   33.4940   57.0610 C.1     0  <0>0        0.1048
      5  N2         0.4100   33.5360   57.6800 N.2     0  <0>0       -0.1129
      6  N3        -0.4380   32.6300   57.0230 N.pl3   0  <0>0       -0.1952
      7  S1        -0.2780   30.8670   54.8800 S.3     0  <0>0       -0.0657
      8  C2        -1.3700   29.8050   55.8670 C.3     0  <0>0        0.0560
      9  C1        -2.8290   30.1340   55.5450 C.3     0  <0>0        0.0121
     10  C3        -1.0930   28.3380   55.5340 C.3     0  <0>0        0.0159
     11  C4         0.0320   28.2530   54.4990 C.3     0  <0>0        0.0272
     12  C5        -0.4140   27.3970   53.3430 C.ar    0  <0>0       -0.0222
     13  C10       -0.0570   26.0620   53.2920 C.ar    0  <0>0       -0.0043
     14  C9        -0.4690   25.2760   52.2330 C.ar    0  <0>0       -0.0003
     15  C8        -1.2310   25.8260   51.2190 C.ar    0  <0>0       -0.0000
     16  C7        -1.5840   27.1610   51.2670 C.ar    0  <0>0       -0.0003
     17  C6        -1.1750   27.9470   52.3280 C.ar    0  <0>0       -0.0043
     18  C13        2.7670   34.2940   57.4160 C.ar    0  <0>0        0.0756
     19  C18        3.9750   34.0740   56.7550 C.ar    0  <0>0        0.0142
     20  C17        5.0860   34.8210   57.0830 C.ar    0  <0>0        0.0376
     21  C16        5.0050   35.7850   58.0800 C.ar    0  <0>0        0.1388
     22  C15        3.8050   36.0020   58.7440 C.ar    0  <0>0        0.0376
     23  C14        2.6900   35.2610   58.4150 C.ar    0  <0>0        0.0142
     24  O1         6.1020   36.5170   58.4050 O.3     0  <0>0       -0.4714
     25  C19        6.9230   36.9700   57.3280 C.3     0  <0>0        0.2525
@<TRIPOS>BOND
     1    15    16   ar
     2    15    14   ar
     3    16    17   ar
     4    14    13   ar
     5    17    12   ar
     6    13    12   ar
     7    12    11    1
     8    11    10    1
     9     7     8    1
    10     7     1    1
    11    10     8    1
    12     9     8    1
    13     1     2    2
    14     1     6    1
    15     2     4    2
    16    19    20   ar
    17    19    18   ar
    18     6     3    1
    19     6     5    1
    20     4    18    1
    21     4     5    2
    22    20    21   ar
    23    25    24    1
    24    18    23   ar
    25    21    24    1
    26    21    22   ar
    27    23    22   ar
