@<TRIPOS>MOLECULE
ZINC21639549_replica-1.pdb
 27 30 0 0 0
SMALL
GASTEIGER

@<TRIPOS>ATOM
      1  N1        11.4720   34.9790   61.9980 N.pl3   0  <0>0       -0.2451
      2  C7        10.5800   35.0060   60.9400 C.1     0  <0>0        0.1483
      3  N2        10.1190   33.8630   60.4520 N.2     0  <0>0       -0.1700
      4  C8         9.2680   33.8560   59.4410 C.2     0  <0>0        0.1110
      5  C9         8.8560   35.0630   58.8920 C.2     0  <0>0        0.0402
      6  C10        9.3510   36.2350   59.4260 C.2     0  <0>0        0.1219
      7  N3        10.2050   36.1740   60.4380 N.2     0  <0>0       -0.3421
      8  C11        8.9430   37.5820   58.8900 C.3     0  <0>0        0.0770
      9  C12        8.3110   37.4210   57.5070 C.3     0  <0>0        0.0802
     10  N4         7.2730   36.3790   57.5830 N.3     0  <0>0       -0.2642
     11  C13        7.8890   35.0570   57.7400 C.3     0  <0>0        0.1033
     12  H4        11.7850   35.9180   62.4780 H       0  <0>0        0.1648
     13  C3        11.9770   33.7560   62.4580 C.ar    0  <0>0        0.0851
     14  C2        11.1080   32.7490   62.8520 C.ar    0  <0>0        0.0198
     15  C1        11.6090   31.5430   63.3040 C.ar    0  <0>0        0.0311
     16  C6        12.9760   31.3380   63.3650 C.ar    0  <0>0        0.1425
     17  C5        13.8470   32.3420   62.9730 C.ar    0  <0>0        0.0605
     18  F1        13.4630   30.1580   63.8090 F       0  <0>0       -0.2041
     19  C4        13.3510   33.5470   62.5140 C.ar    0  <0>0        0.1562
     20  F2        14.2000   34.5240   62.1260 F       0  <0>0       -0.2028
     21  C14        6.4020   36.4170   56.4010 C.3     0  <0>0        0.1059
     22  C15        4.9800   36.1430   56.8150 C.ar    0  <0>0        0.0239
     23  S1         4.3380   35.7430   58.4320 S.2     0  <0>0       -0.0831
     24  C18        2.6150   35.5940   57.9890 C.ar    0  <0>0        0.0635
     25  C17        2.6440   35.8560   56.6580 C.ar    0  <0>0        0.0134
     26 Br          1.1330   35.1800   59.0890 Br      0  <0>0       -0.0419
     27  C16        3.8570   36.1370   56.0580 C.ar    0  <0>0        0.0046
@<TRIPOS>BOND
     1    27    25   ar
     2    27    22   ar
     3    21    22    1
     4    21    10    1
     5    25    24   ar
     6    22    23   ar
     7     9    10    1
     8     9     8    1
     9    10    11    1
    10    11     5    1
    11    24    23   ar
    12    24    26    1
    13     8     6    1
    14     5     6    1
    15     5     4    2
    16     6     7    2
    17     4     3    1
    18     7     2    2
    19     3     2    2
    20     2     1    1
    21     1    13    1
    22     1    12    1
    23    20    19    1
    24    13    19   ar
    25    13    14   ar
    26    19    17   ar
    27    14    15   ar
    28    17    16   ar
    29    15    16   ar
    30    16    18    1
