@<TRIPOS>MOLECULE
ZINC39726224_replica-1.pdb
 30 34 0 0 0
SMALL
GASTEIGER

@<TRIPOS>ATOM
      1  C9         8.9190   34.0940   60.4500 C.2     0  <0>0        0.2204
      2  N1         9.7530   33.0840   61.1060 N.2     0  <0>0       -0.3810
      3  C10       10.8330   33.4260   61.7240 C.2     0  <0>0        0.1554
      4  C11       11.8840   32.6970   62.4740 C.3     0  <0>0        0.1292
      5  C12       12.0970   31.3690   62.7910 C.2     0  <0>0       -0.0123
      6  C13       13.2140   31.0070   63.5300 C.2     0  <0>0       -0.0037
      7  C14       14.1130   31.9720   63.9490 C.2     0  <0>0        0.0020
      8  C15       13.9160   33.3030   63.6390 C.2     0  <0>0        0.0283
      9  C16       12.7950   33.6900   62.8950 C.2     0  <0>0        0.1197
     10  N2        12.3740   34.9050   62.4650 N.2     0  <0>0       -0.3985
     11  C17       11.2600   34.8500   61.7860 C.2     0  <0>0        0.2108
     12  C18       10.4290   35.8800   61.1300 C.2     0  <0>0        0.2907
     13  O1        10.7580   37.0500   61.1680 O.2     0  <0>0       -0.2663
     14  N3         9.3030   35.5070   60.4880 N.am    0  <0>0       -0.1994
     15  S1         8.7740   33.6220   58.7050 S.3     0  <0>0       -0.0628
     16  C2         7.0010   33.3090   58.4800 C.3     0  <0>0        0.0777
     17  C1         6.2960   33.3710   59.8360 C.3     0  <0>0        0.0169
     18  C3         6.4190   34.3530   57.5630 C.ar    0  <0>0       -0.0120
     19  C8         7.1050   34.7340   56.4260 C.ar    0  <0>0       -0.0034
     20  C7         6.5690   35.6890   55.5820 C.ar    0  <0>0       -0.0003
     21  C6         5.3500   36.2700   55.8800 C.ar    0  <0>0       -0.0000
     22  C5         4.6670   35.8930   57.0210 C.ar    0  <0>0       -0.0003
     23  C4         5.2010   34.9350   57.8630 C.ar    0  <0>0       -0.0034
     24  C19        8.5040   36.4680   59.8600 C.ar    0  <0>0        0.0886
     25  C24        7.2910   36.8430   60.4250 C.ar    0  <0>0        0.1541
     26  C23        6.5070   37.7990   59.8040 C.ar    0  <0>0        0.0309
     27  F1         6.8810   36.2820   61.5840 F       0  <0>0       -0.2028
     28  C22        6.9230   38.3690   58.6150 C.ar    0  <0>0        0.0024
     29  C21        8.1260   37.9930   58.0470 C.ar    0  <0>0        0.0014
     30  C20        8.9160   37.0440   58.6650 C.ar    0  <0>0        0.0176
@<TRIPOS>BOND
     1    20    21   ar
     2    20    19   ar
     3    21    22   ar
     4    19    18   ar
     5    22    23   ar
     6    18    23   ar
     7    18    16    1
     8    29    28   ar
     9    29    30   ar
    10    16    15    1
    11    16    17    1
    12    28    26   ar
    13    30    24   ar
    14    15     1    1
    15    26    25   ar
    16    24    25   ar
    17    24    14    1
    18    25    27    1
    19     1    14    1
    20     1     2    2
    21    14    12   am
    22     2     3    2
    23    12    13    2
    24    12    11    1
    25     3    11    1
    26     3     4    1
    27    11    10    2
    28    10     9    2
    29     4     5    1
    30     4     9    1
    31     5     6    2
    32     9     8    1
    33     6     7    1
    34     8     7    2
