@<TRIPOS>MOLECULE
ZINC34952063_replica-1.pdb
 30 31 0 0 0
SMALL
GASTEIGER

@<TRIPOS>ATOM
      1  N2         1.4150   31.5750   57.5700 N.am    0  <0>0       -0.2430
      2  C15        0.6730   30.7620   56.7920 C.2     0  <0>0        0.3115
      3  O2        -0.3520   30.2750   57.2280 O.2     0  <0>0       -0.2519
      4  N3         1.0660   30.4900   55.5320 N.am    0  <0>0       -0.2660
      5  H21        1.9070   30.8420   55.2010 H       0  <0>0        0.1565
      6  C8         1.0430   31.7900   58.9710 C.3     0  <0>0        0.1015
      7  C7         1.0850   33.2860   59.2840 C.3     0  <0>0        0.0432
      8  C6         2.1540   33.5550   60.3460 C.3     0  <0>0        0.0912
      9  N1         3.1580   34.4750   59.8070 N.am    0  <0>0       -0.3043
     10  C5         4.4470   34.3610   60.1820 C.2     0  <0>0        0.2227
     11  O1         4.7760   33.4970   60.9670 O.2     0  <0>0       -0.2751
     12  H9         2.8950   35.1670   59.1780 H       0  <0>0        0.1494
     13  C2         5.4800   35.3070   59.6270 C.3     0  <0>0        0.0839
     14  C1         5.8840   36.3120   60.7080 C.3     0  <0>0        0.0104
     15  C3         4.8960   36.0560   58.4280 C.3     0  <0>0        0.0104
     16  C4         6.7110   34.5140   59.1820 C.3     0  <0>0        0.1034
     17 Cl          7.4230   35.2830   57.7140 Cl      0  <0>0       -0.1132
     18  C9         2.5420   32.2130   57.0390 C.ar    0  <0>0        0.0553
     19  C14        2.3900   33.2260   56.1000 C.ar    0  <0>0        0.0149
     20  C13        3.5040   33.8580   55.5820 C.ar    0  <0>0        0.0013
     21  C12        4.7690   33.4750   55.9890 C.ar    0  <0>0        0.0001
     22  C11        4.9230   32.4630   56.9180 C.ar    0  <0>0        0.0013
     23  C10        3.8140   31.8310   57.4450 C.ar    0  <0>0        0.0149
     24  C16        0.2610   29.7010   54.7020 C.ar    0  <0>0        0.0793
     25  C21       -0.8100   30.2710   54.0230 C.ar    0  <0>0        0.1535
     26  C20       -1.5990   29.4880   53.2000 C.ar    0  <0>0        0.0309
     27  F1        -1.0760   31.5870   54.1630 F       0  <0>0       -0.2029
     28  C19       -1.3310   28.1380   53.0620 C.ar    0  <0>0        0.0024
     29  C18       -0.2690   27.5680   53.7400 C.ar    0  <0>0        0.0014
     30  C17        0.5270   28.3450   54.5590 C.ar    0  <0>0        0.0170
@<TRIPOS>BOND
     1    28    26   ar
     2    28    29   ar
     3    26    25   ar
     4    29    30   ar
     5    25    27    1
     6    25    24   ar
     7    30    24   ar
     8    24     4    1
     9     5     4    1
    10     4     2   am
    11    20    21   ar
    12    20    19   ar
    13    21    22   ar
    14    19    18   ar
    15     2     3    2
    16     2     1   am
    17    22    23   ar
    18    18    23   ar
    19    18     1    1
    20     1     6    1
    21    17    16    1
    22    15    13    1
    23     6     7    1
    24    12     9    1
    25    16    13    1
    26     7     8    1
    27    13    10    1
    28    13    14    1
    29     9    10   am
    30     9     8    1
    31    10    11    2
