@<TRIPOS>MOLECULE
ZINC07505267_replica-1.pdb
 23 25 0 0 0
SMALL
GASTEIGER

@<TRIPOS>ATOM
      1  N2         0.4390   30.0420   55.1010 N.3     0  <0>0       -0.1724
      2  H7         1.2550   29.7100   54.6950 H       0  <0>0        0.1495
      3  C6         0.5010   30.8160   56.2640 C.3     0  <0>0        0.1200
      4  C5         0.5100   32.2090   56.1850 C.2     0  <0>0       -0.0021
      5  C4         0.5700   32.9850   57.2980 C.2     0  <0>0        0.0297
      6  C3         0.6250   32.4050   58.5880 C.2     0  <0>0        0.1371
      7  N1         0.6870   33.0310   59.7830 N.2     0  <0>0       -0.3993
      8  C8         0.6150   30.9920   58.6390 C.2     0  <0>0        0.0584
      9  C2         0.7350   32.3850   60.9170 C.2     0  <0>0        0.1389
     10  C1         0.8060   32.9390   62.3160 C.3     0  <0>0        0.0739
     11  S1         0.6940   30.6790   60.3860 S.3     0  <0>0       -0.0575
     12  C7         0.5490   30.2100   57.5120 C.2     0  <0>0        0.0044
     13  S2        -1.0280   29.6940   54.4170 S.O2    0  <0>0        0.0629
     14  O1        -1.2860   30.7180   53.4660 O.2     0  <0>0       -0.1529
     15  O2        -1.9180   29.4050   55.4860 O.2     0  <0>0       -0.1529
     16  C9        -0.8360   28.1980   53.5050 C.ar    0  <0>0        0.1493
     17  C14       -0.1520   27.1300   54.0620 C.ar    0  <0>0        0.1594
     18  C13        0.0030   25.9580   53.3440 C.ar    0  <0>0        0.0424
     19  F1         0.3680   27.2360   55.3040 F       0  <0>0       -0.2027
     20  C12       -0.5300   25.8510   52.0710 C.ar    0  <0>0        0.0600
     21  C11       -1.2180   26.9170   51.5190 C.ar    0  <0>0        0.0129
     22 Cl         -0.3370   24.3810   51.1700 Cl      0  <0>0       -0.0822
     23  C10       -1.3730   28.0880   52.2370 C.ar    0  <0>0        0.0231
@<TRIPOS>BOND
     1    22    20    1
     2    21    20   ar
     3    21    23   ar
     4    20    18   ar
     5    23    16   ar
     6    18    17   ar
     7    14    13    2
     8    16    17   ar
     9    16    13    1
    10    17    19    1
    11    13     1    1
    12    13    15    2
    13     2     1    1
    14     1     3    1
    15     4     3    1
    16     4     5    2
    17     3    12    1
    18     5     6    1
    19    12     8    2
    20     6     8    1
    21     6     7    2
    22     8    11    1
    23     7     9    2
    24    11     9    1
    25     9    10    1
