@<TRIPOS>MOLECULE
ZINC18276776_replica-1.pdb
 23 26 0 0 0
SMALL
GASTEIGER

@<TRIPOS>ATOM
      1  C1        12.9090   30.2600   63.7500 C.1     0  <0>0       -0.0132
      2  C2        12.1260   31.0740   63.4300 C.1     0  <0>0       -0.0648
      3  C3        11.1450   32.0960   63.0290 C.3     0  <0>0        0.1508
      4  S1        12.0050   33.6560   62.6830 S.3     0  <0>0       -0.0031
      5  C4        10.9510   34.4770   61.5360 C.1     0  <0>0        0.1797
      6  N2        10.8160   35.7950   61.6110 N.2     0  <0>0       -0.2640
      7  C7        10.0260   36.4510   60.7670 C.1     0  <0>0        0.1968
      8  C6         9.3300   35.7330   59.8030 C.3     0  <0>0        0.1721
      9  O1         9.8980   37.7980   60.8500 O.2     0  <0>0       -0.2130
     10  C5         9.5080   34.3510   59.7440 C.2     0  <0>0        0.1378
     11  C8         8.3820   36.4120   58.8580 C.3     0  <0>0        0.0260
     12  N1        10.3090   33.7600   60.6220 N.2     0  <0>0       -0.3377
     13  C15        8.7810   33.5810   58.7100 C.ar    0  <0>0        0.0235
     14  C14        8.2320   34.2550   57.6200 C.ar    0  <0>0       -0.0199
     15  C16        8.6400   32.2010   58.8180 C.ar    0  <0>0        0.0020
     16  C13        8.4030   35.7450   57.4870 C.3     0  <0>0        0.0279
     17  C19        7.5330   33.5490   56.6610 C.ar    0  <0>0       -0.0042
     18  C18        7.3910   32.1780   56.7760 C.ar    0  <0>0       -0.0003
     19  C17        7.9440   31.5050   57.8500 C.ar    0  <0>0        0.0001
     20  C12        8.7660   37.8990   58.7160 C.3     0  <0>0        0.0018
     21  C9         6.9560   36.3760   59.4320 C.3     0  <0>0        0.0018
     22  C11        7.4060   38.6330   58.6230 C.3     0  <0>0        0.0001
     23  C10        6.5210   37.8450   59.6210 C.3     0  <0>0        0.0001
@<TRIPOS>BOND
     1    17    18   ar
     2    17    14   ar
     3    18    19   ar
     4    16    14    1
     5    16    11    1
     6    14    13   ar
     7    19    15   ar
     8    22    20    1
     9    22    23    1
    10    13    15   ar
    11    13    10    1
    12    20    11    1
    13    11    21    1
    14    11     8    1
    15    21    23    1
    16    10     8    1
    17    10    12    2
    18     8     7    1
    19    12     5    2
    20     7     9    2
    21     7     6    2
    22     5     6    2
    23     5     4    1
    24     4     3    1
    25     3     2    1
    26     2     1    3
