@<TRIPOS>MOLECULE
ZINC00626227_replica-1.pdb
 26 28 0 0 0
SMALL
GASTEIGER

@<TRIPOS>ATOM
      1  C4         5.0650   35.1440   56.6360 C.3     0  <0>0        0.1691
      2  C5         3.9800   34.7080   55.8730 C.2     0  <0>0        0.1010
      3  N1         2.9620   34.0850   56.4260 N.2     0  <0>0       -0.4139
      4  C6         2.8950   33.8370   57.7250 C.2     0  <0>0        0.1106
      5  C7         3.9330   34.2360   58.5660 C.2     0  <0>0        0.0570
      6  C8         5.0480   34.9110   58.0270 C.2     0  <0>0       -0.0007
      7  C15        3.8770   33.9520   60.0080 C.2     0  <0>0        0.1749
      8  O3         4.8500   34.1010   60.7160 O.2     0  <0>0       -0.2913
      9  C16        2.5600   33.4670   60.5780 C.3     0  <0>0        0.0696
     10  C17        1.9860   32.4410   59.5920 C.3     0  <0>0        0.0139
     11  C18        1.6800   33.1290   58.2650 C.3     0  <0>0        0.0594
     12  C19        3.0070   31.3240   59.3660 C.3     0  <0>0        0.0009
     13  C20        0.6990   31.8460   60.1670 C.3     0  <0>0        0.0009
     14  C21        3.9780   34.9510   54.3860 C.3     0  <0>0        0.0624
     15  C9         6.1640   35.3540   58.8890 C.ar    0  <0>0       -0.0029
     16  C14        7.2960   34.5520   59.0400 C.ar    0  <0>0        0.0002
     17  C13        8.3330   34.9710   59.8450 C.ar    0  <0>0        0.0067
     18  C12        8.2540   36.1860   60.5050 C.ar    0  <0>0        0.0346
     19  C11        7.1330   36.9870   60.3610 C.ar    0  <0>0        0.0067
     20 Br          9.6800   36.7530   61.6090 Br      0  <0>0       -0.0490
     21  C10        6.0920   36.5820   59.5520 C.ar    0  <0>0        0.0002
     22  C3         6.2010   35.8390   56.0010 C.2     0  <0>0        0.3271
     23  O2         7.1170   35.1980   55.5270 O.2     0  <0>0       -0.2493
     24  O1         6.2220   37.1850   55.9480 O.3     0  <0>0       -0.4480
     25  C2         7.4980   37.8130   55.6480 C.3     0  <0>0        0.2086
     26  C1         8.2110   38.1690   56.9540 C.3     0  <0>0        0.0513
@<TRIPOS>BOND
     1    14     2    1
     2    23    22    2
     3    25    24    1
     4    25    26    1
     5     2     3    2
     6     2     1    1
     7    24    22    1
     8    22     1    1
     9     3     4    2
    10     1     6    1
    11     4    11    1
    12     4     5    1
    13     6     5    2
    14     6    15    1
    15    11    10    1
    16     5     7    1
    17    15    16   ar
    18    15    21   ar
    19    16    17   ar
    20    12    10    1
    21    21    19   ar
    22    10    13    1
    23    10     9    1
    24    17    18   ar
    25     7     9    1
    26     7     8    2
    27    19    18   ar
    28    18    20    1
