@<TRIPOS>MOLECULE
ZINC66368291_replica-1.pdb
 22 22 0 0 0
SMALL
GASTEIGER

@<TRIPOS>ATOM
      1  N1        -0.0180   31.9390   55.3040 N.am    0  <0>0       -0.2906
      2  C7         1.0600   32.2540   56.0500 C.2     0  <0>0        0.3007
      3  O1         1.5410   31.4310   56.8020 O.2     0  <0>0       -0.2528
      4  N2         1.6040   33.4840   55.9600 N.am    0  <0>0       -0.2903
      5  H16       -0.4020   32.5960   54.7040 H       0  <0>0        0.1509
      6  H17        1.2190   34.1420   55.3590 H       0  <0>0        0.1509
      7  C8         2.7750   33.8290   56.7700 C.3     0  <0>0        0.0812
      8  C13        2.5640   35.1980   57.4160 C.3     0  <0>0        0.1130
      9  C12        3.7890   35.5580   58.2620 C.3     0  <0>0        0.0102
     10  C11        5.0300   35.6000   57.3690 C.3     0  <0>0        0.0004
     11  C10        5.2400   34.2310   56.7220 C.3     0  <0>0        0.0017
     12  C9         4.0170   33.8710   55.8760 C.3     0  <0>0        0.0199
     13  C14        1.3230   35.1560   58.3100 C.3     0  <0>0        0.3990
     14  F1         0.1820   35.3860   57.5340 F       0  <0>0       -0.1700
     15  F2         1.2280   33.8990   58.9170 F       0  <0>0       -0.1700
     16  F3         1.4240   36.1440   59.2940 F       0  <0>0       -0.1700
     17  C3        -0.6090   30.6020   55.4020 C.3     0  <0>0        0.0730
     18  C2        -1.1060   30.1620   54.0240 C.3     0  <0>0        0.0196
     19  C1        -0.7120   28.7030   53.7820 C.3     0  <0>0        0.0017
     20  C4        -1.7850   30.6350   56.3810 C.3     0  <0>0        0.0180
     21  C5        -3.0940   30.7720   55.6010 C.3     0  <0>0        0.0017
     22  C6        -1.8090   29.3390   57.1940 C.3     0  <0>0        0.0017
@<TRIPOS>BOND
     1    19    18    1
     2    18    17    1
     3     5     1    1
     4     1    17    1
     5     1     2   am
     6     6     4    1
     7    17    20    1
     8    21    20    1
     9    12    11    1
    10    12     7    1
    11     4     2   am
    12     4     7    1
    13     2     3    2
    14    20    22    1
    15    11    10    1
    16     7     8    1
    17    10     9    1
    18     8     9    1
    19     8    13    1
    20    14    13    1
    21    13    15    1
    22    13    16    1
