@<TRIPOS>MOLECULE
ZINC05370640_replica-1.pdb
 32 34 0 0 0
SMALL
GASTEIGER

@<TRIPOS>ATOM
      1  C4         7.9090   35.7860   57.3720 C.3     0  <0>0        0.1155
      2  C5         6.3960   35.9740   57.5100 C.3     0  <0>0        0.0337
      3  C6         5.8660   35.0210   58.5860 C.3     0  <0>0        0.0245
      4  C7         6.2430   33.5850   58.2100 C.3     0  <0>0        0.0362
      5  C8         7.7620   33.4890   58.0450 C.3     0  <0>0        0.1424
      6  O1         8.1920   34.4230   57.0520 O.3     0  <0>0       -0.3562
      7  C9         6.4900   35.3760   59.9380 C.3     0  <0>0       -0.0190
      8  C10        6.5190   36.8970   60.1010 C.3     0  <0>0       -0.0809
      9  N2         7.5680   37.2580   61.0730 N.4     0  <0>0        0.3865
     10  H38        7.6760   36.4980   61.7540 H       0  <0>0       -0.0840
     11  H39        7.2940   38.1190   61.5620 H       0  <0>0       -0.0840
     12  C11        8.8520   37.4800   60.3810 C.3     0  <0>0       -0.0543
     13  C12        9.8690   36.4970   60.9010 C.ar    0  <0>0       -0.0436
     14  C17       10.6280   36.8130   62.0130 C.ar    0  <0>0       -0.0051
     15  C16       11.5620   35.9140   62.4920 C.ar    0  <0>0        0.0141
     16  C15       11.7360   34.6920   61.8560 C.ar    0  <0>0        0.0479
     17  C14       10.9720   34.3780   60.7400 C.ar    0  <0>0        0.0141
     18  C13       10.0370   35.2790   60.2690 C.ar    0  <0>0       -0.0051
     19  N1        12.6790   33.7810   62.3380 N.pl3   0  <0>0       -0.3041
     20  C18       14.1090   34.0750   62.2200 C.3     0  <0>0        0.1122
     21  C19       12.2370   32.5310   62.9600 C.3     0  <0>0        0.1122
     22  C20        4.3670   35.1430   58.6740 C.ar    0  <0>0        0.0112
     23  C25        3.6720   34.4610   59.6610 C.ar    0  <0>0        0.1347
     24  C24        2.2910   34.5760   59.7390 C.ar    0  <0>0        0.0366
     25  C23        1.6130   35.3700   58.8330 C.ar    0  <0>0        0.0031
     26  C22        2.3090   36.0480   57.8510 C.ar    0  <0>0       -0.0001
     27  C21        3.6850   35.9400   57.7740 C.ar    0  <0>0       -0.0013
     28  O2         4.3400   33.6810   60.5500 O.3     0  <0>0       -0.4717
     29  C26        3.7800   32.3980   60.8370 C.3     0  <0>0        0.2525
     30  C2         8.4360   36.6920   56.2570 C.3     0  <0>0        0.0272
     31  C1         7.4940   36.6180   55.0530 C.3     0  <0>0        0.0025
     32  C3         8.5060   38.1350   56.7610 C.3     0  <0>0        0.0025
@<TRIPOS>BOND
     1    31    30    1
     2    30    32    1
     3    30     1    1
     4     6     1    1
     5     6     5    1
     6     1     2    1
     7     2     3    1
     8    27    26   ar
     9    27    22   ar
    10    26    25   ar
    11     5     4    1
    12     4     3    1
    13     3    22    1
    14     3     7    1
    15    22    23   ar
    16    25    24   ar
    17    23    24   ar
    18    23    28    1
    19     7     8    1
    20     8     9    1
    21    18    17   ar
    22    18    13   ar
    23    12    13    1
    24    12     9    1
    25    28    29    1
    26    17    16   ar
    27    13    14   ar
    28     9    11    1
    29     9    10    1
    30    16    19    1
    31    16    15   ar
    32    14    15   ar
    33    20    19    1
    34    19    21    1
