@<TRIPOS>MOLECULE
ZINC17208107_replica-1.pdb
 22 25 0 0 0
SMALL
GASTEIGER

@<TRIPOS>ATOM
      1  C7         0.3290   29.3250   55.1450 C.3     0  <0>0        0.1397
      2  C8        -0.1510   28.6950   56.4330 C.3     0  <0>0        0.0317
      3  C9        -1.5630   28.1230   56.3230 C.3     0  <0>0        0.0028
      4  C10       -1.9310   27.4680   57.6590 C.3     0  <0>0        0.0001
      5  C11       -1.9290   28.5020   58.7830 C.3     0  <0>0        0.0000
      6  C12       -0.5280   29.1080   58.9460 C.3     0  <0>0        0.0003
      7  C13       -0.1130   29.6540   57.5920 C.3     0  <0>0        0.0073
      8  C14        0.1860   30.9030   57.4480 C.3     0  <0>0        0.0514
      9  C15        0.5060   31.7790   58.6450 C.3     0  <0>0        0.0048
     10  C16        1.9580   32.2520   58.4690 C.3     0  <0>0        0.0003
     11  C17        2.1280   32.9500   57.1210 C.3     0  <0>0        0.0050
     12  C18        1.8170   31.9940   55.9880 C.3     0  <0>0        0.0560
     13  C19        0.3650   31.5390   56.0940 C.3     0  <0>0        0.1836
     14  O1        -0.0540   30.6920   55.0490 O.3     0  <0>0       -0.3326
     15  C4        -0.2600   28.5680   53.9810 C.ar    0  <0>0        0.0046
     16  C3        -1.2270   29.1610   53.1910 C.ar    0  <0>0       -0.0019
     17  C2        -1.7670   28.4670   52.1240 C.ar    0  <0>0       -0.0002
     18  C1        -1.3400   27.1820   51.8470 C.ar    0  <0>0       -0.0000
     19  C6        -0.3720   26.5900   52.6370 C.ar    0  <0>0       -0.0002
     20  C5         0.1720   27.2850   53.7020 C.ar    0  <0>0       -0.0019
     21  O2        -0.4550   32.7080   56.0570 O.3     0  <0>0       -0.3635
     22  H24       -1.2540   32.6460   56.5990 H       0  <0>0        0.2128
@<TRIPOS>BOND
     1    18    17   ar
     2    18    19   ar
     3    17    16   ar
     4    19    20   ar
     5    16    15   ar
     6    20    15   ar
     7    15     1    1
     8    14     1    1
     9    14    13    1
    10     1     2    1
    11    12    13    1
    12    12    11    1
    13    21    13    1
    14    21    22    1
    15    13     8    1
    16     3     2    1
    17     3     4    1
    18     2     7    1
    19    11    10    1
    20     8     7    1
    21     8     9    1
    22     7     6    1
    23     4     5    1
    24    10     9    1
    25     5     6    1
