@<TRIPOS>MOLECULE
ZINC03999297_replica-1.pdb
 31 33 0 0 0
SMALL
GASTEIGER

@<TRIPOS>ATOM
      1  C7        -1.1920   28.5980   55.2400 C.3     0  <0>0        0.0024
      2  C4        -0.7950   28.3350   56.6940 C.3     0  <0>0        0.0051
      3  C3        -0.5580   26.8350   56.8980 C.3     0  <0>0        0.0273
      4  C2        -0.2400   26.5720   58.3720 C.3     0  <0>0        0.0929
      5  C1         1.0490   27.3030   58.7540 C.3     0  <0>0        0.0296
      6  O1        -1.3160   27.0500   59.1830 O.3     0  <0>0       -0.3585
      7  C26       -0.0600   25.0690   58.5960 C.3     0  <0>0        0.0296
      8  C6        -1.5540   28.4540   59.0690 C.3     0  <0>0        0.1419
      9  C5        -1.9250   28.7920   57.6230 C.3     0  <0>0        0.0322
     10  C8        -1.6030   30.0630   55.0810 C.3     0  <0>0       -0.0230
     11  C9        -0.4480   30.8530   54.4640 C.3     0  <0>0       -0.0813
     12  N2        -0.2130   32.0700   55.2630 N.4     0  <0>0        0.3864
     13  H38       -0.9840   32.1910   55.9300 H       0  <0>0       -0.0840
     14  H39       -0.1710   32.8840   54.6380 H       0  <0>0       -0.0840
     15  C10        1.0570   31.9610   56.0040 C.3     0  <0>0       -0.0543
     16  C11        0.8080   32.2560   57.4600 C.ar    0  <0>0       -0.0436
     17  C16        0.8110   31.2270   58.3840 C.ar    0  <0>0       -0.0051
     18  C15        0.5830   31.4940   59.7190 C.ar    0  <0>0        0.0141
     19  C14        0.3480   32.7990   60.1350 C.ar    0  <0>0        0.0479
     20  C13        0.3460   33.8300   59.2040 C.ar    0  <0>0        0.0141
     21  C12        0.5810   33.5560   57.8710 C.ar    0  <0>0       -0.0051
     22  N1         0.1160   33.0730   61.4840 N.pl3   0  <0>0       -0.3041
     23  C17       -0.3540   34.3980   61.8930 C.3     0  <0>0        0.1122
     24  C18        0.3410   32.0330   62.4910 C.3     0  <0>0        0.1122
     25  C19       -0.0020   28.3000   54.3250 C.3     0  <0>0        0.0263
     26  C20       -0.4360   27.3730   53.2200 C.ar    0  <0>0       -0.0222
     27  C25       -0.0530   26.0450   53.2420 C.ar    0  <0>0       -0.0043
     28  C24       -0.4510   25.1950   52.2270 C.ar    0  <0>0       -0.0003
     29  C23       -1.2340   25.6710   51.1920 C.ar    0  <0>0       -0.0000
     30  C22       -1.6180   26.9990   51.1710 C.ar    0  <0>0       -0.0003
     31  C21       -1.2230   27.8490   52.1880 C.ar    0  <0>0       -0.0043
@<TRIPOS>BOND
     1    30    29   ar
     2    30    31   ar
     3    29    28   ar
     4    31    26   ar
     5    28    27   ar
     6    26    27   ar
     7    26    25    1
     8    25     1    1
     9    11    10    1
    10    11    12    1
    11    14    12    1
    12    10     1    1
    13     1     2    1
    14    12    13    1
    15    12    15    1
    16    15    16    1
    17     2     3    1
    18     2     9    1
    19     3     4    1
    20    16    21   ar
    21    16    17   ar
    22     9     8    1
    23    21    20   ar
    24     4     7    1
    25     4     5    1
    26     4     6    1
    27    17    18   ar
    28     8     6    1
    29    20    19   ar
    30    18    19   ar
    31    19    22    1
    32    22    23    1
    33    22    24    1
