@<TRIPOS>MOLECULE
ZINC50358967_replica-1.pdb
 18 19 0 0 0
SMALL
GASTEIGER

@<TRIPOS>ATOM
      1  C3         8.7080   36.1380   59.0590 C.3     0  <0>0        0.1247
      2  C4         8.8870   34.7890   58.9440 C.2     0  <0>0        0.0971
      3  N1         9.7290   34.1550   59.7530 N.2     0  <0>0       -0.3918
      4  C5        10.4100   34.8050   60.6830 C.2     0  <0>0        0.2197
      5  N2        10.2710   36.1550   60.8430 N.am    0  <0>0       -0.2567
      6  H1        10.7770   36.6190   61.5280 H       0  <0>0        0.1573
      7  C6         9.4300   36.8410   60.0400 C.2     0  <0>0        0.2339
      8  O1         9.2960   38.0480   60.1650 O.2     0  <0>0       -0.2743
      9  C11        8.1270   34.0170   57.8960 C.3     0  <0>0        0.0620
     10  C7        11.3270   34.0650   61.5530 C.ar    0  <0>0        0.1903
     11  O2        11.1120   32.8360   62.0690 O.2     0  <0>0       -0.4425
     12  C10       12.1660   32.4750   62.8130 C.ar    0  <0>0        0.1853
     13  C9        13.0750   33.4780   62.7940 C.ar    0  <0>0        0.0787
     14 Br         12.3520   30.8390   63.7420 Br      0  <0>0       -0.0073
     15  C8        12.5460   34.4990   61.9900 C.ar    0  <0>0        0.0518
     16 Br         14.7440   33.4990   63.6830 Br      0  <0>0       -0.0452
     17  C2         7.7540   36.8640   58.1440 C.3     0  <0>0        0.0159
     18  C1         8.5360   37.5000   56.9930 C.3     0  <0>0        0.0009
@<TRIPOS>BOND
     1    18    17    1
     2     9     2    1
     3    17     1    1
     4     2     1    1
     5     2     3    2
     6     1     7    1
     7     3     4    2
     8     7     8    2
     9     7     5   am
    10     4     5    1
    11     4    10    1
    12     5     6    1
    13    10    15   ar
    14    10    11   ar
    15    15    13   ar
    16    11    12   ar
    17    13    12   ar
    18    13    16    1
    19    12    14    1
