@<TRIPOS>MOLECULE
ZINC62655784_replica-1.pdb
 21 22 0 0 0
SMALL
GASTEIGER

@<TRIPOS>ATOM
      1  C8         0.0780   28.2020   54.7410 C.ar    0  <0>0        0.0727
      2  C9        -0.5910   28.4350   53.5470 C.ar    0  <0>0        0.0204
      3  C10       -0.8100   27.3940   52.6650 C.ar    0  <0>0        0.0728
      4  C11       -0.3640   26.1210   52.9710 C.ar    0  <0>0        0.0062
      5  C12        0.3020   25.8840   54.1590 C.ar    0  <0>0        0.0309
      6  C13        0.5300   26.9230   55.0440 C.ar    0  <0>0        0.1531
      7  F1         1.1860   26.6920   56.2030 F       0  <0>0       -0.2029
      8  N1         0.3020   29.2540   55.6360 N.pl3   0  <0>0       -0.3264
      9  H10        1.2080   29.5370   55.8330 H       0  <0>0        0.1472
     10  C3        -0.8320   29.9270   56.2750 C.3     0  <0>0        0.1273
     11  C2        -1.7040   28.8910   56.9880 C.3     0  <0>0        0.0273
     12  C1        -3.0940   28.8670   56.3490 C.3     0  <0>0        0.0022
     13  C4        -0.3220   30.9300   57.2760 C.ar    0  <0>0        0.1406
     14  O1         0.1610   30.6460   58.4970 O.2     0  <0>0       -0.4530
     15  C7         0.5250   31.7830   59.1100 C.ar    0  <0>0        0.1792
     16  C6         0.2700   32.8130   58.2840 C.ar    0  <0>0        0.0435
     17  C5        -0.2780   32.2630   57.1010 C.ar    0  <0>0        0.0379
     18  C14       -1.5360   27.6460   51.3690 C.3     0  <0>0        0.4186
     19  F2        -2.3010   26.5220   51.0370 F       0  <0>0       -0.1659
     20  F3        -2.3740   28.7560   51.5130 F       0  <0>0       -0.1659
     21  F4        -0.6040   27.8920   50.3540 F       0  <0>0       -0.1659
@<TRIPOS>BOND
     1    21    18    1
     2    19    18    1
     3    18    20    1
     4    18     3    1
     5     3     4   ar
     6     3     2   ar
     7     4     5   ar
     8     2     1   ar
     9     5     6   ar
    10     1     6   ar
    11     1     8    1
    12     6     7    1
    13     8     9    1
    14     8    10    1
    15    10    11    1
    16    10    13    1
    17    12    11    1
    18    17    13   ar
    19    17    16   ar
    20    13    14   ar
    21    16    15   ar
    22    14    15   ar
