@<TRIPOS>MOLECULE
ZINC41286681_replica-1.pdb
 29 32 0 0 0
SMALL
GASTEIGER

@<TRIPOS>ATOM
      1  C1         3.7440   35.5600   54.7780 C.3     0  <0>0        0.0313
      2  C2         3.8150   35.6710   56.2800 C.ar    0  <0>0       -0.0127
      3  C3         2.6670   35.6510   57.0220 C.ar    0  <0>0        0.0337
      4  C4         2.7300   35.7530   58.4080 C.ar    0  <0>0        0.1515
      5  C5         3.9510   35.8760   59.0520 C.ar    0  <0>0        0.0751
      6  C6         5.1260   35.8980   58.3120 C.ar    0  <0>0        0.1513
      7  C7         5.0510   35.7900   56.9140 C.ar    0  <0>0        0.0728
      8  C8         6.4390   35.8360   56.4180 C.2     0  <0>0        0.2324
      9  O1         6.8210   35.7780   55.2630 O.2     0  <0>0       -0.2832
     10  C9         7.2590   35.9710   57.6320 C.2     0  <0>0        0.1840
     11  C10        8.6130   36.0550   57.6790 C.2     0  <0>0        0.0408
     12  O2         6.4180   36.0090   58.6920 O.3     0  <0>0       -0.4501
     13  O3         1.5840   35.7330   59.1370 O.3     0  <0>0       -0.4209
     14  C17        0.7360   34.7020   58.9520 C.2     0  <0>0        0.3457
     15  O4         0.1920   34.5480   57.8770 O.2     0  <0>0       -0.2445
     16  C18        0.4650   33.7620   60.0580 C.ar    0  <0>0        0.0761
     17  C23       -0.0560   34.2300   61.2660 C.ar    0  <0>0        0.0070
     18  C22       -0.3130   33.3450   62.2920 C.ar    0  <0>0        0.0069
     19  C21       -0.0440   31.9970   62.1300 C.ar    0  <0>0        0.0346
     20  C20        0.4780   31.5270   60.9370 C.ar    0  <0>0        0.0069
     21 Br         -0.3920   30.7910   63.5450 Br      0  <0>0       -0.0490
     22  C19        0.7340   32.4000   59.9020 C.ar    0  <0>0        0.0070
     23  C11        9.3060   36.0290   58.9750 C.ar    0  <0>0        0.0033
     24  C16       10.0280   34.8940   59.3630 C.ar    0  <0>0        0.0024
     25  C15       10.6800   34.8800   60.5760 C.ar    0  <0>0        0.0296
     26  C14       10.6130   35.9810   61.4170 C.ar    0  <0>0        0.1401
     27  C13        9.8940   37.1060   61.0410 C.ar    0  <0>0        0.0296
     28  F1        11.2520   35.9580   62.6080 F       0  <0>0       -0.2042
     29  C12        9.2420   37.1370   59.8280 C.ar    0  <0>0        0.0024
@<TRIPOS>BOND
     1     1     2    1
     2     9     8    2
     3     2     7   ar
     4     2     3   ar
     5     8     7    1
     6     8    10    1
     7     7     6   ar
     8     3     4   ar
     9    10    11    2
    10    10    12    1
    11    11    23    1
    12    15    14    2
    13     6    12    1
    14     6     5   ar
    15     4     5   ar
    16     4    13    1
    17    14    13    1
    18    14    16    1
    19    23    24   ar
    20    23    29   ar
    21    24    25   ar
    22    29    27   ar
    23    22    16   ar
    24    22    20   ar
    25    16    17   ar
    26    25    26   ar
    27    20    19   ar
    28    27    26   ar
    29    17    18   ar
    30    26    28    1
    31    19    18   ar
    32    19    21    1
