@<TRIPOS>MOLECULE
ZINC13035818_replica-1.pdb
 24 24 0 0 0
SMALL
GASTEIGER

@<TRIPOS>ATOM
      1  C7        -0.5420   30.4850   55.6800 C.2     0  <0>0        0.2375
      2  O1         0.3350   30.6930   54.8680 O.2     0  <0>0       -0.2738
      3  N2        -1.3040   29.3780   55.5810 N.am    0  <0>0       -0.2824
      4  H13       -2.0370   29.2370   56.2000 H       0  <0>0        0.1549
      5  C8        -1.0400   28.4370   54.5870 C.ar    0  <0>0        0.0674
      6  C13       -1.5040   28.6380   53.2940 C.ar    0  <0>0        0.0721
      7  C12       -1.2420   27.7050   52.3110 C.ar    0  <0>0        0.0240
      8 Cl         -2.4170   30.0660   52.9130 Cl      0  <0>0       -0.0809
      9  C11       -0.5150   26.5610   52.6070 C.ar    0  <0>0        0.0588
     10  C10       -0.0460   26.3460   53.8860 C.ar    0  <0>0        0.0193
     11 Cl         -0.1920   25.3960   51.3610 Cl      0  <0>0       -0.0822
     12  C9        -0.3040   27.2820   54.8900 C.ar    0  <0>0        0.0949
     13  C14        0.1940   27.0570   56.2590 C.2     0  <0>0        0.3890
     14  O2         1.1370   27.7010   56.6760 O.co2   0  <0>0       -0.2405
     15  O3        -0.3960   26.1370   57.0480 O.co2   0  <0>0       -0.2405
     16  C6        -0.7760   31.4650   56.8010 C.3     0  <0>0        0.1489
     17  S2         0.5190   31.2750   58.0510 S.3     0  <0>0       -0.0824
     18  C5         1.5020   32.6920   57.6900 C.2     0  <0>0        0.1114
     19  S1         3.0150   32.5080   56.9100 S.2     0  <0>0       -0.0279
     20  N1         1.0640   33.9210   58.0300 N.am    0  <0>0       -0.2976
     21  C2         0.7770   34.2340   59.4310 C.3     0  <0>0        0.0918
     22  C1         2.0030   33.9100   60.2870 C.3     0  <0>0        0.0232
     23  C3         0.8750   34.9420   56.9960 C.3     0  <0>0        0.0918
     24  C4         1.8880   36.0700   57.2020 C.3     0  <0>0        0.0232
@<TRIPOS>BOND
     1    11     9    1
     2     7     9   ar
     3     7     6   ar
     4     9    10   ar
     5     8     6    1
     6     6     5   ar
     7    10    12   ar
     8     5    12   ar
     9     5     3    1
    10     2     1    2
    11    12    13    1
    12     3     1   am
    13     3     4    1
    14     1    16    1
    15    13    14   ar
    16    13    15   ar
    17    16    17    1
    18    19    18    2
    19    23    24    1
    20    23    20    1
    21    18    20    1
    22    18    17    1
    23    20    21    1
    24    21    22    1
