@<TRIPOS>MOLECULE
ZINC28231590_replica-1.pdb
 30 32 0 0 0
SMALL
GASTEIGER

@<TRIPOS>ATOM
      1  C1         7.7430   32.1990   58.6320 C.3     0  <0>0        0.0553
      2  C2         7.1160   33.5570   58.4460 C.ar    0  <0>0        0.0935
      3  C3         7.4160   34.7080   59.1870 C.ar    0  <0>0        0.0793
      4  C4         6.6380   35.7180   58.7200 C.ar    0  <0>0        0.0709
      5  N1         5.8780   35.2170   57.7110 N.ar    0  <0>0       -0.2495
      6  N2         6.1970   33.8610   57.5650 N.ar    0  <0>0       -0.1724
      7  C12        6.6210   37.1370   59.2270 C.3     0  <0>0        0.0531
      8  N3         8.3530   34.8000   60.2330 N.am    0  <0>0       -0.2785
      9  C13        9.6310   35.1350   59.9650 C.2     0  <0>0        0.2495
     10  O1         9.9950   35.2670   58.8130 O.2     0  <0>0       -0.2698
     11  H12        8.0430   34.5980   61.2690 H       0  <0>0        0.1552
     12  C14       10.5880   35.3420   61.0720 C.ar    0  <0>0        0.0536
     13  C19       11.5380   34.3640   61.3700 C.ar    0  <0>0        0.0084
     14  C18       12.4330   34.5660   62.4010 C.ar    0  <0>0        0.0716
     15  C17       12.3820   35.7310   63.1450 C.ar    0  <0>0        0.0039
     16  C16       11.4430   36.7050   62.8560 C.ar    0  <0>0        0.0001
     17  C15       10.5470   36.5180   61.8230 C.ar    0  <0>0        0.0045
     18  C20       13.4620   33.5130   62.7200 C.3     0  <0>0        0.4186
     19  F2        13.9160   33.6870   64.0320 F       0  <0>0       -0.1659
     20  F3        12.8880   32.2450   62.5890 F       0  <0>0       -0.1659
     21  F4        14.5400   33.6310   61.8350 F       0  <0>0       -0.1659
     22  C5         4.8950   35.9630   56.9210 C.3     0  <0>0        0.1543
     23  C6         3.5070   35.4970   57.2780 C.ar    0  <0>0        0.0128
     24  C11        2.8550   34.5830   56.4690 C.ar    0  <0>0        0.0578
     25  C10        1.5820   34.1530   56.7960 C.ar    0  <0>0        0.0408
     26 Cl          3.6360   33.9750   55.0430 Cl      0  <0>0       -0.0824
     27  C9         0.9610   34.6380   57.9340 C.ar    0  <0>0        0.1410
     28  C8         1.6150   35.5540   58.7420 C.ar    0  <0>0        0.0294
     29  F1        -0.2830   34.2200   58.2550 F       0  <0>0       -0.2041
     30  C7         2.8900   35.9760   58.4170 C.ar    0  <0>0        0.0008
@<TRIPOS>BOND
     1    26    24    1
     2    24    25   ar
     3    24    23   ar
     4    25    27   ar
     5    22    23    1
     6    22     5    1
     7    23    30   ar
     8     6     5   ar
     9     6     2   ar
    10     5     4   ar
    11    27    29    1
    12    27    28   ar
    13    30    28   ar
    14     2     1    1
    15     2     3   ar
    16     4     3   ar
    17     4     7    1
    18    10     9    2
    19     3     8    1
    20     9     8   am
    21     9    12    1
    22     8    11    1
    23    12    13   ar
    24    12    17   ar
    25    13    14   ar
    26    17    16   ar
    27    21    18    1
    28    14    18    1
    29    14    15   ar
    30    20    18    1
    31    18    19    1
    32    16    15   ar
