@<TRIPOS>MOLECULE
ZINC04319838_replica-1.pdb
 22 22 0 0 0
SMALL
GASTEIGER

@<TRIPOS>ATOM
      1  O2        -0.0140   32.0190   55.7570 O.3     0  <0>0       -0.4353
      2  C7         0.1770   32.5550   57.0670 C.3     0  <0>0        0.2927
      3  C6         1.5070   33.2610   57.1320 C.2     0  <0>0        0.2671
      4  N1         2.3250   33.2590   56.0620 N.am    0  <0>0       -0.3029
      5  H12        2.0580   32.8030   55.2480 H       0  <0>0        0.1495
      6  O1         1.8420   33.8310   58.1500 O.2     0  <0>0       -0.2711
      7  C3         3.6190   33.9450   56.1260 C.3     0  <0>0        0.0717
      8  C2         4.7340   32.9140   56.3120 C.3     0  <0>0        0.0196
      9  C1         5.3760   33.1010   57.6880 C.3     0  <0>0        0.0017
     10  C4         3.8500   34.7180   54.8260 C.3     0  <0>0        0.0196
     11  C5         5.1810   34.2880   54.2060 C.3     0  <0>0        0.0017
     12  C8        -1.0040   31.1160   55.6030 C.2     0  <0>0        0.3419
     13  O3        -2.1150   31.3510   56.0380 O.2     0  <0>0       -0.2449
     14  C9        -0.7400   29.8510   54.9180 C.2     0  <0>0        0.0819
     15  C10       -1.4290   29.5300   53.8030 C.2     0  <0>0        0.0066
     16  C11       -1.1630   28.2570   53.1140 C.ar    0  <0>0        0.0002
     17  C16       -0.3830   27.2730   53.7310 C.ar    0  <0>0       -0.0003
     18  C15       -0.1400   26.0840   53.0790 C.ar    0  <0>0       -0.0043
     19  C14       -0.6640   25.8610   51.8170 C.ar    0  <0>0       -0.0218
     20  C13       -1.4370   26.8300   51.2010 C.ar    0  <0>0       -0.0043
     21  C17       -0.3910   24.5580   51.1110 C.3     0  <0>0        0.0310
     22  C12       -1.6950   28.0230   51.8430 C.ar    0  <0>0       -0.0003
@<TRIPOS>BOND
     1    21    19    1
     2    20    19   ar
     3    20    22   ar
     4    19    18   ar
     5    22    16   ar
     6    18    17   ar
     7    16    17   ar
     8    16    15    1
     9    15    14    2
    10    11    10    1
    11    10     7    1
    12    14    12    1
    13     5     4    1
    14    12     1    1
    15    12    13    2
    16     1     2    1
    17     4     7    1
    18     4     3   am
    19     7     8    1
    20     8     9    1
    21     2     3    1
    22     3     6    2
