@<TRIPOS>MOLECULE
ZINC21262573_replica-1.pdb
 28 30 0 0 0
SMALL
GASTEIGER

@<TRIPOS>ATOM
      1  N2         7.6560   34.0510   58.3080 N.am    0  <0>0       -0.2866
      2  C7         8.2160   34.8730   57.2330 C.3     0  <0>0        0.0721
      3  C6         7.5150   36.2330   57.2110 C.3     0  <0>0       -0.0379
      4  N1         7.0090   36.5300   55.8540 N.4     0  <0>0        0.3893
      5  C3         7.1750   37.9720   55.5960 C.3     0  <0>0       -0.0773
      6  H36        7.5770   35.9530   55.1090 H       0  <0>0       -0.0795
      7  C4         7.8370   38.5860   56.8460 C.3     0  <0>0       -0.0248
      8  C5         8.5270   37.3660   57.5120 C.3     0  <0>0       -0.0213
      9  C2         5.6020   36.1290   55.7180 C.3     0  <0>0       -0.0773
     10  C1         5.4900   35.0030   54.6880 C.3     0  <0>0       -0.0250
     11  C8         8.4740   33.7150   59.4750 C.3     0  <0>0        0.1574
     12  C9         8.8820   34.9810   60.1850 C.ar    0  <0>0        0.1430
     13  O1         8.0560   35.8160   60.8350 O.2     0  <0>0       -0.4530
     14  C12        8.7640   36.8370   61.3460 C.ar    0  <0>0        0.1792
     15  C11       10.0570   36.6600   61.0240 C.ar    0  <0>0        0.0435
     16  C10       10.1340   35.4600   60.2800 C.ar    0  <0>0        0.0379
     17  C13        6.3880   33.6050   58.2230 C.2     0  <0>0        0.1348
     18  S1         6.0200   32.2500   57.2420 S.2     0  <0>0       -0.0186
     19  N3         5.4070   34.2240   58.9110 N.am    0  <0>0       -0.3176
     20  H20        5.6420   35.0930   59.5410 H       0  <0>0        0.1484
     21  C14        4.0290   33.7370   58.8200 C.3     0  <0>0        0.0706
     22  C21        3.1800   34.7520   58.0500 C.3     0  <0>0        0.0195
     23  C20        1.8720   34.0920   57.6080 C.3     0  <0>0        0.0017
     24  C19        0.6990   34.7330   58.3530 C.3     0  <0>0        0.0001
     25  C18        1.0640   34.8980   59.8310 C.3     0  <0>0        0.0000
     26  C17        0.9750   33.5410   60.5310 C.3     0  <0>0        0.0001
     27  C16        2.1950   32.6950   60.1590 C.3     0  <0>0        0.0017
     28  C15        3.4560   33.5580   60.2270 C.3     0  <0>0        0.0195
@<TRIPOS>BOND
     1    10     9    1
     2     6     4    1
     3     5     4    1
     4     5     7    1
     5     9     4    1
     6     4     3    1
     7     7     8    1
     8     3     2    1
     9     3     8    1
    10     2     1    1
    11    18    17    2
    12    23    22    1
    13    23    24    1
    14    22    21    1
    15    17     1    1
    16    17    19    1
    17     1    11    1
    18    24    25    1
    19    21    19    1
    20    21    28    1
    21    19    20    1
    22    11    12    1
    23    25    26    1
    24    27    28    1
    25    27    26    1
    26    12    16   ar
    27    12    13   ar
    28    16    15   ar
    29    13    14   ar
    30    15    14   ar
