@<TRIPOS>MOLECULE
ZINC04588077_replica-1.pdb
 23 25 0 0 0
SMALL
GASTEIGER

@<TRIPOS>ATOM
      1  N1        -1.0920   28.6600   55.0170 N.am    0  <0>0       -0.2127
      2  C8        -1.1730   27.9250   56.1140 C.2     0  <0>0        0.2618
      3  O1        -0.3680   27.0460   56.3550 O.2     0  <0>0       -0.2689
      4  C9        -2.2900   28.2300   57.0320 C.2     0  <0>0        0.0876
      5  C10       -2.6180   27.6530   58.2150 C.2     0  <0>0        0.0120
      6  S1        -3.0920   29.5640   56.1540 S.3     0  <0>0       -0.0252
      7  C17       -1.9890   29.6320   54.7520 C.2     0  <0>0        0.2867
      8  O2        -2.0360   30.3730   53.7880 O.2     0  <0>0       -0.2619
      9  C7        -0.0040   28.4110   54.0670 C.3     0  <0>0        0.1308
     10  C5        -0.4510   27.3950   53.0480 C.ar    0  <0>0        0.0256
     11  C4        -0.0220   26.0820   53.1450 C.ar    0  <0>0        0.1378
     12  C3        -0.4330   25.1500   52.2080 C.ar    0  <0>0        0.0294
     13  F1         0.7950   25.7110   54.1550 F       0  <0>0       -0.2044
     14  C2        -1.2700   25.5310   51.1760 C.ar    0  <0>0        0.0023
     15  C1        -1.6980   26.8420   51.0800 C.ar    0  <0>0       -0.0001
     16  C6        -1.2880   27.7740   52.0160 C.ar    0  <0>0       -0.0004
     17  C11       -1.7140   26.6720   58.8300 C.ar    0  <0>0        0.0112
     18  C16       -0.6870   27.0970   59.6810 C.ar    0  <0>0        0.0577
     19  C15        0.1580   26.1680   60.2540 C.ar    0  <0>0        0.0114
     20 Cl         -0.4750   28.7880   60.0140 Cl      0  <0>0       -0.0822
     21  C14       -0.0090   24.8200   59.9900 C.ar    0  <0>0        0.0009
     22  C13       -1.0230   24.3910   59.1510 C.ar    0  <0>0        0.0001
     23  C12       -1.8790   25.3060   58.5740 C.ar    0  <0>0        0.0009
@<TRIPOS>BOND
     1    15    14   ar
     2    15    16   ar
     3    14    12   ar
     4    16    10   ar
     5    12    11   ar
     6    10    11   ar
     7    10     9    1
     8    11    13    1
     9     8     7    2
    10     9     1    1
    11     7     1   am
    12     7     6    1
    13     1     2   am
    14     2     3    2
    15     2     4    1
    16     6     4    1
    17     4     5    2
    18     5    17    1
    19    23    17   ar
    20    23    22   ar
    21    17    18   ar
    22    22    21   ar
    23    18    20    1
    24    18    19   ar
    25    21    19   ar
