@<TRIPOS>MOLECULE
ZINC66540901_replica-1.pdb
 24 26 0 0 0
SMALL
GASTEIGER

@<TRIPOS>ATOM
      1  C4        11.1460   34.7690   61.2610 C.3     0  <0>0        0.0750
      2  C5        10.1790   34.2000   60.2210 C.3     0  <0>0        0.0234
      3  C6         9.8340   35.2840   59.1980 C.3     0  <0>0        0.0453
      4  C7         9.1780   36.4690   59.9110 C.3     0  <0>0        0.1693
      5  C8        10.1460   37.0380   60.9510 C.3     0  <0>0        0.0453
      6  C9        10.4900   35.9530   61.9730 C.3     0  <0>0        0.0234
      7  O3         8.8570   37.4810   58.9550 O.3     0  <0>0       -0.4492
      8  C10        7.5580   37.8220   58.8380 C.2     0  <0>0        0.3407
      9  O4         7.2240   38.9870   58.9300 O.2     0  <0>0       -0.2449
     10  C11        6.5450   36.7840   58.5990 C.2     0  <0>0        0.0734
     11  C12        6.2370   36.4280   57.3550 C.2     0  <0>0       -0.0384
     12  C13        5.0830   35.4940   57.1010 C.3     0  <0>0        0.0185
     13  C15        3.8350   35.6600   57.9690 C.3     0  <0>0        0.0044
     14  C14        3.8080   36.0900   56.5010 C.3     0  <0>0        0.0044
     15  C16        7.0440   36.9600   56.1980 C.3     0  <0>0        0.0185
     16  C18        8.2920   36.1750   55.7880 C.3     0  <0>0        0.0044
     17  C17        7.0440   36.1450   54.9030 C.3     0  <0>0        0.0044
     18  N1        11.4750   33.7310   62.2410 N.am    0  <0>0       -0.2723
     19  C3        12.7630   33.4880   62.5590 C.2     0  <0>0        0.4016
     20  O2        13.6500   34.1310   62.0330 O.2     0  <0>0       -0.2264
     21  H6        10.7670   33.2180   62.6610 H       0  <0>0        0.1527
     22  O1        13.0660   32.5340   63.4600 O.3     0  <0>0       -0.4347
     23  C2        12.9600   31.1770   63.0270 C.3     0  <0>0        0.2102
     24  C1        12.3630   30.3280   64.1520 C.3     0  <0>0        0.0513
@<TRIPOS>BOND
     1    17    16    1
     2    17    15    1
     3    16    15    1
     4    15    11    1
     5    14    12    1
     6    14    13    1
     7    12    11    1
     8    12    13    1
     9    11    10    2
    10    10     8    1
    11     8     9    2
    12     8     7    1
    13     7     4    1
    14     3     4    1
    15     3     2    1
    16     4     5    1
    17     2     1    1
    18     5     6    1
    19     1     6    1
    20     1    18    1
    21    20    19    2
    22    18    19   am
    23    18    21    1
    24    19    22    1
    25    23    22    1
    26    23    24    1
