@<TRIPOS>MOLECULE
ZINC54752779_replica-1.pdb
 26 29 0 0 0
SMALL
GASTEIGER

@<TRIPOS>ATOM
      1  C7        -0.0870   28.6520   55.1320 C.2     0  <0>0        0.2269
      2  N2         0.3360   29.8710   54.8880 N.2     0  <0>0       -0.3147
      3  C8         0.5740   30.7550   55.8630 C.1     0  <0>0        0.2077
      4  O1         0.9670   31.8800   55.5950 O.2     0  <0>0       -0.2092
      5  C9         0.3570   30.3560   57.2710 C.ar    0  <0>0        0.1145
      6  C10        0.5410   31.1270   58.4950 C.ar    0  <0>0        0.0157
      7  C11        0.2730   30.5360   59.6830 C.ar    0  <0>0        0.0096
      8  S1        -0.2480   28.8960   59.2170 S.2     0  <0>0       -0.0758
      9  C12       -0.0940   29.0450   57.4580 C.ar    0  <0>0        0.0923
     10  N3        -0.3140   28.2180   56.4030 N.pl3   0  <0>0       -0.2797
     11  C13        0.3880   31.1230   61.0670 C.3     0  <0>0        0.0382
     12  H14       -0.6290   27.3150   56.5560 H       0  <0>0        0.1552
     13  C6        -0.3280   27.7300   54.0000 C.2     0  <0>0        0.1750
     14  C5         0.1850   26.4340   54.0420 C.2     0  <0>0        0.0319
     15  C4        -0.0500   25.5830   52.9750 C.2     0  <0>0       -0.0163
     16  C3        -0.7890   26.0550   51.9010 C.3     0  <0>0        0.0804
     17  C2        -1.2690   27.3550   51.9260 C.2     0  <0>0        0.0916
     18  C1        -2.0720   27.8720   50.7610 C.3     0  <0>0        0.0618
     19  N1        -1.0270   28.1450   52.9500 N.2     0  <0>0       -0.4062
     20  C14        1.0160   32.5300   58.4380 C.ar    0  <0>0        0.0011
     21  C19        2.3780   32.8120   58.5380 C.ar    0  <0>0        0.0023
     22  C18        2.8160   34.1190   58.4790 C.ar    0  <0>0        0.0296
     23  C17        1.9040   35.1510   58.3310 C.ar    0  <0>0        0.1401
     24  C16        0.5500   34.8770   58.2370 C.ar    0  <0>0        0.0296
     25  F1         2.3380   36.4300   58.2780 F       0  <0>0       -0.2042
     26  C15        0.1020   33.5730   58.2890 C.ar    0  <0>0        0.0023
@<TRIPOS>BOND
     1    18    17    1
     2    16    17    1
     3    16    15    1
     4    17    19    2
     5    19    13    2
     6    15    14    2
     7    13    14    1
     8    13     1    1
     9     2     1    2
    10     2     3    2
    11     1    10    1
    12     4     3    2
    13     3     5    1
    14    10    12    1
    15    10     9    1
    16     5     9   ar
    17     5     6   ar
    18     9     8   ar
    19    24    26   ar
    20    24    23   ar
    21    25    23    1
    22    26    20   ar
    23    23    22   ar
    24    20     6    1
    25    20    21   ar
    26    22    21   ar
    27     6     7   ar
    28     8     7   ar
    29     7    11    1
