@<TRIPOS>MOLECULE
ZINC13468963_replica-1.pdb
 27 28 0 0 0
SMALL
GASTEIGER

@<TRIPOS>ATOM
      1  N1         6.7600   35.6190   58.4140 N.am    0  <0>0       -0.3022
      2  C11        5.7660   35.4110   59.2990 C.2     0  <0>0        0.2235
      3  O1         5.6170   36.1690   60.2350 O.2     0  <0>0       -0.2751
      4  H13        6.8780   35.0130   57.6670 H       0  <0>0        0.1497
      5  C12        4.8370   34.2370   59.1270 C.3     0  <0>0        0.0998
      6  C13        3.6570   34.6440   58.2430 C.3     0  <0>0        0.1211
      7  C14        3.2050   36.0570   58.6140 C.3     0  <0>0        0.0162
      8  C15        4.0800   34.6160   56.7960 C.ar    0  <0>0       -0.0122
      9  C20        3.6480   35.6030   55.9310 C.ar    0  <0>0       -0.0038
     10  C19        4.0310   35.5730   54.6030 C.ar    0  <0>0       -0.0003
     11  C18        4.8510   34.5610   54.1430 C.ar    0  <0>0       -0.0000
     12  C17        5.2880   33.5770   55.0090 C.ar    0  <0>0       -0.0003
     13  C16        4.9050   33.6060   56.3370 C.ar    0  <0>0       -0.0038
     14  C21        2.5160   33.6820   58.4520 C.2     0  <0>0        0.3680
     15  O2         1.3890   34.0100   58.1720 O.co2   0  <0>0       -0.2453
     16  O3         2.7540   32.4580   58.9500 O.co2   0  <0>0       -0.2453
     17  C4         7.6630   36.7610   58.5810 C.3     0  <0>0        0.0940
     18  C2         8.2330   37.1640   57.2200 C.3     0  <0>0        0.0222
     19  C1         7.2030   36.8690   56.1270 C.3     0  <0>0        0.0020
     20  C3         8.5570   38.6590   57.2250 C.3     0  <0>0        0.0020
     21  C5         8.7890   36.3790   59.5050 C.ar    0  <0>0       -0.0044
     22  C10        9.5510   35.2560   59.2380 C.ar    0  <0>0       -0.0004
     23  C9        10.5850   34.9050   60.0840 C.ar    0  <0>0        0.0294
     24  C8        10.8590   35.6770   61.2010 C.ar    0  <0>0        0.1401
     25  C7        10.0950   36.8000   61.4680 C.ar    0  <0>0        0.0294
     26  F1        11.8680   35.3340   62.0290 F       0  <0>0       -0.2042
     27  C6         9.0640   37.1540   60.6170 C.ar    0  <0>0       -0.0004
@<TRIPOS>BOND
     1    11    10   ar
     2    11    12   ar
     3    10     9   ar
     4    12    13   ar
     5     9     8   ar
     6    19    18    1
     7    13     8   ar
     8     8     6    1
     9    18    20    1
    10    18    17    1
    11     4     1    1
    12    15    14   ar
    13     6    14    1
    14     6     7    1
    15     6     5    1
    16     1    17    1
    17     1     2   am
    18    14    16   ar
    19    17    21    1
    20     5     2    1
    21    22    21   ar
    22    22    23   ar
    23     2     3    2
    24    21    27   ar
    25    23    24   ar
    26    27    25   ar
    27    24    25   ar
    28    24    26    1
