@<TRIPOS>MOLECULE
ZINC65654553_replica-1.pdb
 24 24 0 0 0
SMALL
GASTEIGER

@<TRIPOS>ATOM
      1  C3        -0.2170   29.4540   57.8800 C.2     0  <0>0        0.3351
      2  O1        -1.3450   29.2660   58.2710 O.2     0  <0>0       -0.2483
      3  C2         0.8860   29.7350   58.8680 C.3     0  <0>0        0.1740
      4  C1         2.0270   28.7370   58.6570 C.3     0  <0>0        0.0334
      5  N1         1.3870   31.0970   58.6660 N.am    0  <0>0       -0.2624
      6  C13        1.6370   31.8870   59.7290 C.2     0  <0>0        0.4018
      7  O4         1.4470   31.4700   60.8540 O.2     0  <0>0       -0.2264
      8  H16        1.5380   31.4310   57.7680 H       0  <0>0        0.1532
      9  O5         2.0970   33.1390   59.5450 O.3     0  <0>0       -0.4419
     10  C14        1.1230   34.1660   59.3530 C.3     0  <0>0        0.1378
     11  C15        0.3550   34.3910   60.6570 C.3     0  <0>0        0.0437
     12  C16        1.8250   35.4640   58.9450 C.3     0  <0>0        0.0437
     13  C17        0.1470   33.7460   58.2520 C.3     0  <0>0        0.0437
     14  O2         0.0530   29.4130   56.5660 O.3     0  <0>0       -0.4472
     15  C4        -0.7670   30.2100   55.7100 C.3     0  <0>0        0.2124
     16  C5         0.0380   31.4090   55.2030 C.3     0  <0>0        0.0514
     17  C6        -1.2300   29.3670   54.5190 C.3     0  <0>0        0.2486
     18  O3        -0.2720   28.3380   54.2620 O.3     0  <0>0       -0.4716
     19  C7        -0.5630   27.4610   53.2660 C.ar    0  <0>0        0.1387
     20  C12       -0.0850   26.1590   53.3250 C.ar    0  <0>0        0.0369
     21  C11       -0.3870   25.2670   52.3150 C.ar    0  <0>0        0.0031
     22  C10       -1.1530   25.6740   51.2380 C.ar    0  <0>0        0.0002
     23  C9        -1.6260   26.9720   51.1740 C.ar    0  <0>0        0.0031
     24  C8        -1.3320   27.8660   52.1850 C.ar    0  <0>0        0.0369
@<TRIPOS>BOND
     1    23    22   ar
     2    23    24   ar
     3    22    21   ar
     4    24    19   ar
     5    21    20   ar
     6    19    20   ar
     7    19    18    1
     8    18    17    1
     9    17    15    1
    10    16    15    1
    11    15    14    1
    12    14     1    1
    13     8     5    1
    14     1     2    2
    15     1     3    1
    16    13    10    1
    17     4     3    1
    18     5     3    1
    19     5     6   am
    20    12    10    1
    21    10     9    1
    22    10    11    1
    23     9     6    1
    24     6     7    2
