@<TRIPOS>MOLECULE
ZINC38737920_replica-1.pdb
 29 30 0 0 0
SMALL
GASTEIGER

@<TRIPOS>ATOM
      1  C8         6.9740   32.5290   58.0600 C.3     0  <0>0        0.0210
      2  C9         5.5680   32.0900   58.4750 C.3     0  <0>0       -0.0120
      3  C10        5.6570   31.2560   59.7560 C.3     0  <0>0       -0.0038
      4  C11        6.3530   32.0820   60.8430 C.3     0  <0>0       -0.0228
      5  C12        7.7300   32.5210   60.3390 C.3     0  <0>0       -0.0761
      6  N2         7.5740   33.3350   59.1290 N.4     0  <0>0        0.3966
      7  H39        6.9780   34.1240   59.3290 H       0  <0>0       -0.0784
      8  C13        8.8920   33.8200   58.6940 C.3     0  <0>0       -0.0461
      9  C14        9.3980   34.8450   59.6760 C.ar    0  <0>0       -0.0095
     10  C19        8.7800   36.0830   59.7670 C.ar    0  <0>0        0.1327
     11  C18        9.2460   37.0220   60.6760 C.ar    0  <0>0        0.0362
     12  C17       10.3300   36.7270   61.4790 C.ar    0  <0>0       -0.0012
     13  C16       10.9490   35.4940   61.3810 C.ar    0  <0>0       -0.0227
     14  C15       10.4840   34.5540   60.4800 C.ar    0  <0>0       -0.0076
     15  O2         7.7160   36.3730   58.9730 O.3     0  <0>0       -0.4718
     16  C20        7.3780   37.7520   58.8210 C.3     0  <0>0        0.2524
     17  C21       12.1320   35.1740   62.2580 C.3     0  <0>0        0.0223
     18  C22       12.0930   36.0570   63.5070 C.3     0  <0>0        0.0047
     19  C23       12.0780   33.7020   62.6720 C.3     0  <0>0        0.0047
     20  C7         6.8910   33.3500   56.7980 C.2     0  <0>0        0.2029
     21  N1         6.5250   34.6450   56.8600 N.am    0  <0>0       -0.3076
     22  H15        6.3140   35.0490   57.7160 H       0  <0>0        0.1493
     23  O1         7.1540   32.8440   55.7280 O.2     0  <0>0       -0.2773
     24  C2         6.4440   35.4430   55.6340 C.3     0  <0>0        0.0715
     25  C1         7.7500   36.2170   55.4430 C.3     0  <0>0        0.0213
     26  C3         5.2780   36.4280   55.7420 C.3     0  <0>0        0.0196
     27  C4         4.0410   35.8300   55.0690 C.3     0  <0>0        0.0016
     28  C5         4.4620   34.6700   54.1660 C.3     0  <0>0        0.0001
     29  C6         3.0760   35.3170   56.1410 C.3     0  <0>0        0.0001
@<TRIPOS>BOND
     1    28    27    1
     2    27    26    1
     3    27    29    1
     4    25    24    1
     5    24    26    1
     6    24    21    1
     7    23    20    2
     8    20    21   am
     9    20     1    1
    10    21    22    1
    11     1     2    1
    12     1     6    1
    13     2     3    1
    14     8     6    1
    15     8     9    1
    16    16    15    1
    17    15    10    1
    18     6     7    1
    19     6     5    1
    20     9    10   ar
    21     9    14   ar
    22     3     4    1
    23    10    11   ar
    24     5     4    1
    25    14    13   ar
    26    11    12   ar
    27    13    12   ar
    28    13    17    1
    29    17    19    1
    30    17    18    1
