@<TRIPOS>MOLECULE
ZINC37104231_replica-1.pdb
 21 22 0 0 0
SMALL
GASTEIGER

@<TRIPOS>ATOM
      1  C9        -0.0520   30.0870   54.7920 C.ar    0  <0>0        0.0461
      2  C10       -1.0640   30.9600   54.4120 C.ar    0  <0>0        0.0144
      3  C11       -1.9900   30.5770   53.4610 C.ar    0  <0>0        0.0028
      4  C12       -1.9120   29.3230   52.8840 C.ar    0  <0>0        0.0176
      5  C13       -0.9030   28.4460   53.2590 C.ar    0  <0>0        0.0653
      6  C14        0.0320   28.8290   54.2090 C.ar    0  <0>0        0.0318
      7  N1         0.8830   30.4750   55.7530 N.pl3   0  <0>0       -0.3340
      8  H18        1.8040   30.6390   55.4960 H       0  <0>0        0.1468
      9  C6         0.4740   30.6350   57.1510 C.3     0  <0>0        0.0690
     10  C5        -0.9550   30.1200   57.3270 C.3     0  <0>0        0.0195
     11  C3        -0.9240   28.7560   58.0200 C.3     0  <0>0        0.0016
     12  C4        -1.0930   28.9460   59.5280 C.3     0  <0>0        0.0001
     13  C2        -2.0640   27.8860   57.4840 C.3     0  <0>0        0.0001
     14  C1        -2.9860   28.7380   56.6100 C.3     0  <0>0        0.0000
     15  C7         0.5340   32.1160   57.5340 C.3     0  <0>0        0.0195
     16  C8         0.6970   32.2450   59.0500 C.3     0  <0>0        0.0017
     17  N2        -0.8260   27.1740   52.6720 N.ar    0  <0>0       -0.3035
     18  C18       -0.1800   26.0920   53.1980 C.ar    0  <0>0        0.0802
     19  C17       -0.3330   25.0560   52.3490 C.ar    0  <0>0        0.0205
     20  C16       -1.0920   25.5160   51.2530 C.ar    0  <0>0        0.0205
     21  C15       -1.3810   26.8140   51.4770 C.ar    0  <0>0        0.0802
@<TRIPOS>BOND
     1    20    21   ar
     2    20    19   ar
     3    21    17   ar
     4    19    18   ar
     5    17    18   ar
     6    17     5    1
     7     4     5   ar
     8     4     3   ar
     9     5     6   ar
    10     3     2   ar
    11     6     1   ar
    12     2     1   ar
    13     1     7    1
    14     8     7    1
    15     7     9    1
    16    14    13    1
    17     9    10    1
    18     9    15    1
    19    10    11    1
    20    13    11    1
    21    15    16    1
    22    11    12    1
