@<TRIPOS>MOLECULE
ZINC61047310_replica-1.pdb
 24 26 0 0 0
SMALL
GASTEIGER

@<TRIPOS>ATOM
      1  C1         3.9250   35.9390   59.1460 C.3     0  <0>0        0.0320
      2  C2         3.6840   35.1960   57.8580 C.ar    0  <0>0       -0.0085
      3  C3         4.6010   35.1580   56.8720 C.ar    0  <0>0        0.0055
      4  S1         3.8140   34.1680   55.6190 S.2     0  <0>0       -0.0762
      5  C4         2.3550   33.8350   56.3790 C.ar    0  <0>0        0.0901
      6  C5         2.4580   34.4750   57.6050 C.ar    0  <0>0        0.0843
      7  C6         1.4010   34.4280   58.5700 C.1     0  <0>0        0.1019
      8  N1         0.5620   34.3900   59.3350 N.1     0  <0>0       -0.1908
      9  C17        5.9640   35.7990   56.8370 C.3     0  <0>0        0.0379
     10  N2         1.2920   33.0890   55.8940 N.am    0  <0>0       -0.2730
     11  C7         1.1730   31.7890   56.2310 C.2     0  <0>0        0.2763
     12  O1         1.9980   31.2720   56.9610 O.2     0  <0>0       -0.2673
     13  H4         0.6340   33.5010   55.3130 H       0  <0>0        0.1557
     14  C8         0.0440   30.9960   55.7170 C.2     0  <0>0        0.1741
     15  N3         0.2470   30.0320   54.8300 N.2     0  <0>0       -0.3945
     16  C10       -0.7930   29.3430   54.3990 C.2     0  <0>0        0.1571
     17  S2        -2.1340   30.1100   55.2910 S.3     0  <0>0       -0.0746
     18  C9        -1.2340   31.2480   56.1450 C.3     0  <0>0        0.1281
     19  C11       -0.8360   28.2290   53.4280 C.ar    0  <0>0        0.0356
     20  C16       -0.2000   27.0200   53.7180 C.ar    0  <0>0        0.0031
     21  C15       -0.2480   25.9840   52.8090 C.ar    0  <0>0        0.0001
     22  C14       -0.9160   26.1430   51.6080 C.ar    0  <0>0        0.0000
     23  C13       -1.5440   27.3390   51.3130 C.ar    0  <0>0        0.0001
     24  C12       -1.5080   28.3820   52.2140 C.ar    0  <0>0        0.0031
@<TRIPOS>BOND
     1    23    22   ar
     2    23    24   ar
     3    22    21   ar
     4    24    19   ar
     5    21    20   ar
     6    19    20   ar
     7    19    16    1
     8    16    15    2
     9    16    17    1
    10    15    14    2
    11    17    18    1
    12    13    10    1
    13     4     5   ar
    14     4     3   ar
    15    14    18    1
    16    14    11    1
    17    10    11   am
    18    10     5    1
    19    11    12    2
    20     5     6   ar
    21     9     3    1
    22     3     2   ar
    23     6     2   ar
    24     6     7    1
    25     2     1    1
    26     7     8    3
