@<TRIPOS>MOLECULE
ZINC29080870_replica-1.pdb
 23 24 0 0 0
SMALL
GASTEIGER

@<TRIPOS>ATOM
      1  N1         8.3850   36.5740   58.0580 N.am    0  <0>0       -0.3019
      2  C12        8.4350   37.1580   56.8440 C.2     0  <0>0        0.2272
      3  O1         8.7730   38.3170   56.7440 O.2     0  <0>0       -0.2747
      4  H16        8.1140   35.6450   58.1390 H       0  <0>0        0.1497
      5  C2         8.7400   37.3390   59.2550 C.3     0  <0>0        0.0941
      6  C1         7.4690   37.6960   60.0280 C.3     0  <0>0        0.0262
      7  C3         9.6460   36.5120   60.1310 C.ar    0  <0>0       -0.0045
      8  C8        10.0340   35.2490   59.7260 C.ar    0  <0>0       -0.0030
      9  C7        10.8680   34.4910   60.5280 C.ar    0  <0>0       -0.0045
     10  C6        11.3050   34.9930   61.7390 C.ar    0  <0>0       -0.0225
     11  C5        10.9130   36.2560   62.1470 C.ar    0  <0>0       -0.0045
     12  C4        10.0830   37.0140   61.3430 C.ar    0  <0>0       -0.0030
     13  C9        12.2110   34.1670   62.6140 C.3     0  <0>0        0.0224
     14  C10       11.6640   32.7410   62.7120 C.3     0  <0>0        0.0047
     15  C11       13.6160   34.1340   62.0070 C.3     0  <0>0        0.0047
     16  C13        8.0680   36.3700   55.6130 C.3     0  <0>0        0.1135
     17  C14        6.6960   35.7720   55.7900 C.ar    0  <0>0        0.0144
     18  C19        6.5520   34.4040   55.9460 C.ar    0  <0>0        0.1366
     19  C18        5.2910   33.8560   56.1140 C.ar    0  <0>0        0.0293
     20  F1         7.6410   33.6030   55.9380 F       0  <0>0       -0.2045
     21  C17        4.1780   34.6750   56.1170 C.ar    0  <0>0        0.0023
     22  C16        4.3240   36.0410   55.9570 C.ar    0  <0>0       -0.0002
     23  C15        5.5810   36.5890   55.7940 C.ar    0  <0>0       -0.0016
@<TRIPOS>BOND
     1    16    17    1
     2    16     2    1
     3    17    23   ar
     4    17    18   ar
     5    23    22   ar
     6    20    18    1
     7    18    19   ar
     8    22    21   ar
     9    19    21   ar
    10     3     2    2
    11     2     1   am
    12     1     4    1
    13     1     5    1
    14     5     6    1
    15     5     7    1
    16     8     7   ar
    17     8     9   ar
    18     7    12   ar
    19     9    10   ar
    20    12    11   ar
    21    10    11   ar
    22    10    13    1
    23    15    13    1
    24    13    14    1
