@<TRIPOS>MOLECULE
ZINC37077839_replica-1.pdb
 22 23 0 0 0
SMALL
GASTEIGER

@<TRIPOS>ATOM
      1  C5        -0.4780   30.1470   57.5230 C.2     0  <0>0        0.2716
      2  C6        -1.3230   29.2460   58.1670 C.3     0  <0>0        0.1639
      3  C7        -2.2610   28.5430   57.4190 C.2     0  <0>0        0.0027
      4  C8        -2.3190   28.7660   56.0520 C.2     0  <0>0        0.0363
      5  C9        -1.4460   29.6790   55.4760 C.2     0  <0>0        0.1640
      6  N1        -0.5660   30.3370   56.2170 N.2     0  <0>0       -0.3633
      7  S1        -1.5130   29.9690   53.7400 S.3     0  <0>0       -0.0553
      8  C10       -1.1580   28.3950   53.0300 C.ar    0  <0>0        0.0320
      9  C15       -0.3280   27.5040   53.6950 C.ar    0  <0>0        0.0089
     10  C14       -0.0570   26.2680   53.1400 C.ar    0  <0>0        0.0302
     11  C13       -0.6030   25.9230   51.9150 C.ar    0  <0>0        0.1402
     12  C12       -1.4260   26.8140   51.2460 C.ar    0  <0>0        0.0302
     13  F1        -0.3320   24.7170   51.3710 F       0  <0>0       -0.2042
     14  C11       -1.7050   28.0470   51.8000 C.ar    0  <0>0        0.0089
     15  O1         0.4410   30.8400   58.2430 O.2     0  <0>0       -0.4537
     16  C4         0.5050   32.2510   58.0270 C.3     0  <0>0        0.2077
     17  C2         0.8140   32.9560   59.3490 C.3     0  <0>0        0.0438
     18  C1         2.2680   32.6860   59.7440 C.3     0  <0>0        0.0038
     19  C3         0.6010   34.4620   59.1860 C.3     0  <0>0        0.0038
     20  N2        -1.2290   29.0510   59.5540 N.3     0  <0>0       -0.3105
     21  H16       -1.2380   29.8140   60.1520 H       0  <0>0        0.1196
     22  H17       -1.1550   28.1530   59.9120 H       0  <0>0        0.1196
@<TRIPOS>BOND
     1    12    14   ar
     2    12    11   ar
     3    13    11    1
     4    14     8   ar
     5    11    10   ar
     6     8     9   ar
     7     8     7    1
     8    10     9   ar
     9     7     5    1
    10     5     4    1
    11     5     6    2
    12     4     3    2
    13     6     1    2
    14     3     2    1
    15     1     2    1
    16     1    15    1
    17    16    15    1
    18    16    17    1
    19     2    20    1
    20    19    17    1
    21    17    18    1
    22    20    22    1
    23    20    21    1
