@<TRIPOS>MOLECULE
ZINC42580617_replica-1.pdb
 20 21 0 0 0
SMALL
GASTEIGER

@<TRIPOS>ATOM
      1  C4        -0.4740   31.6780   56.9050 C.3     0  <0>0        0.0498
      2  C5        -0.7710   30.2970   57.4950 C.3     0  <0>0       -0.0071
      3  C6        -1.3440   29.3930   56.4010 C.3     0  <0>0       -0.0759
      4  N2        -0.3690   29.2620   55.3110 N.4     0  <0>0        0.3883
      5  C7        -0.1320   30.5710   54.6930 C.3     0  <0>0       -0.0759
      6  C8         0.4870   31.5210   55.7210 C.3     0  <0>0       -0.0071
      7  H33        0.4990   28.9020   55.6790 H       0  <0>0       -0.0796
      8  C9        -0.8900   28.3310   54.3000 C.3     0  <0>0       -0.0580
      9  C14        0.1840   27.2980   53.9570 C.3     0  <0>0       -0.0189
     10  C13       -0.3580   26.3290   52.9030 C.3     0  <0>0       -0.0020
     11  C12       -0.7380   27.1070   51.6430 C.3     0  <0>0       -0.0001
     12  C11       -1.8130   28.1410   51.9860 C.3     0  <0>0       -0.0021
     13  C10       -1.2700   29.1100   53.0390 C.3     0  <0>0       -0.0208
     14  C15        0.5650   26.5190   55.2180 C.3     0  <0>0       -0.0020
     15  C16        0.5640   25.0210   54.9120 C.3     0  <0>0       -0.0001
     16  N1         0.1470   32.5270   57.9300 N.3     0  <0>0       -0.2986
     17  H10        0.6350   31.9700   58.6150 H       0  <0>0        0.1232
     18  C3         1.0430   33.5180   57.3210 C.3     0  <0>0        0.0685
     19  C2         0.6760   34.9160   57.8230 C.3     0  <0>0        0.0171
     20  C1         1.9300   35.7910   57.8580 C.3     0  <0>0        0.0015
@<TRIPOS>BOND
     1    11    12    1
     2    11    10    1
     3    12    13    1
     4    10     9    1
     5    13     8    1
     6     9     8    1
     7     9    14    1
     8     8     4    1
     9     5     4    1
    10     5     6    1
    11    15    14    1
    12     4     7    1
    13     4     3    1
    14     6     1    1
    15     3     2    1
    16     1     2    1
    17     1    16    1
    18    18    19    1
    19    18    16    1
    20    19    20    1
    21    16    17    1
