@<TRIPOS>MOLECULE
ZINC13021313_replica-1.pdb
 30 32 0 0 0
SMALL
GASTEIGER

@<TRIPOS>ATOM
      1  C9         8.2870   32.7380   59.1500 C.2     0  <0>0        0.2343
      2  O2         7.5890   32.3620   60.0670 O.2     0  <0>0       -0.2741
      3  N2         8.8610   33.9570   59.1950 N.am    0  <0>0       -0.2979
      4  H7         9.4200   34.2570   58.4600 H       0  <0>0        0.1500
      5  C8         8.5150   31.8410   57.9600 C.3     0  <0>0        0.1490
      6  S1         6.9860   31.7150   56.9990 S.3     0  <0>0       -0.0761
      7  C5         6.5740   33.4210   56.8540 C.2     0  <0>0        0.1486
      8  N1         7.4040   34.2500   56.2370 N.2     0  <0>0       -0.4035
      9  C4         7.1320   35.5330   56.1010 C.2     0  <0>0        0.1091
     10  C3         5.9660   36.0770   56.6110 C.2     0  <0>0        0.0200
     11  C23        8.1120   36.4250   55.3840 C.3     0  <0>0        0.0664
     12  C2         5.0640   35.2600   57.2700 C.2     0  <0>0       -0.0242
     13  C1         3.7860   35.8220   57.8370 C.3     0  <0>0        0.0274
     14  C6         5.3690   33.9000   57.3990 C.3     0  <0>0        0.1797
     15  C7         4.4440   32.9860   58.0910 C.2     0  <0>0        0.3753
     16  O1         4.5160   32.8470   59.2960 O.co2   0  <0>0       -0.2448
     17  O3         3.5180   32.3050   57.3880 O.co2   0  <0>0       -0.2448
     18  C10        8.6390   34.8280   60.3510 C.3     0  <0>0        0.1169
     19  C11        9.9320   34.9930   61.1100 C.ar    0  <0>0       -0.0003
     20  C16       10.2590   36.2180   61.6580 C.ar    0  <0>0       -0.0024
     21  C15       11.4440   36.3700   62.3540 C.ar    0  <0>0       -0.0003
     22  C14       12.3000   35.2950   62.5030 C.ar    0  <0>0       -0.0000
     23  C13       11.9720   34.0690   61.9560 C.ar    0  <0>0       -0.0003
     24  C12       10.7850   33.9170   61.2630 C.ar    0  <0>0       -0.0024
     25  C17        8.1590   36.1770   59.8790 C.ar    0  <0>0       -0.0003
     26  C22        6.9350   36.6600   60.3010 C.ar    0  <0>0       -0.0024
     27  C21        6.4950   37.8970   59.8680 C.ar    0  <0>0       -0.0003
     28  C20        7.2780   38.6500   59.0130 C.ar    0  <0>0       -0.0000
     29  C19        8.5020   38.1660   58.5920 C.ar    0  <0>0       -0.0003
     30  C18        8.9460   36.9320   59.0290 C.ar    0  <0>0       -0.0024
@<TRIPOS>BOND
     1    11     9    1
     2     9     8    2
     3     9    10    1
     4     8     7    2
     5    10    12    2
     6     7     6    1
     7     7    14    1
     8     6     5    1
     9    12    14    1
    10    12    13    1
    11    17    15   ar
    12    14    15    1
    13     5     1    1
    14    15    16   ar
    15     4     3    1
    16    29    28   ar
    17    29    30   ar
    18    28    27   ar
    19    30    25   ar
    20     1     3   am
    21     1     2    2
    22     3    18    1
    23    27    26   ar
    24    25    26   ar
    25    25    18    1
    26    18    19    1
    27    19    24   ar
    28    19    20   ar
    29    24    23   ar
    30    20    21   ar
    31    23    22   ar
    32    21    22   ar
