@<TRIPOS>MOLECULE
ZINC20013050_replica-1.pdb
 21 22 0 0 0
SMALL
GASTEIGER

@<TRIPOS>ATOM
      1  N3        10.8510   35.2690   60.8010 N.am    0  <0>0       -0.2660
      2  C9        10.7030   34.0390   61.3310 C.2     0  <0>0        0.2505
      3  O1         9.6520   33.4420   61.2000 O.2     0  <0>0       -0.2698
      4  H14       11.6890   35.7450   60.9060 H       0  <0>0        0.1566
      5  C7         9.7990   35.8560   60.1000 C.ar    0  <0>0        0.1325
      6  C6         9.5390   35.7180   58.7710 C.ar    0  <0>0        0.0505
      7  C5         8.3980   36.4690   58.4770 C.ar    0  <0>0        0.0807
      8  N2         7.9840   37.0420   59.5770 N.ar    0  <0>0       -0.1725
      9  N1         8.8440   36.6710   60.6190 N.ar    0  <0>0       -0.2359
     10  C8         8.7350   37.0910   62.0190 C.3     0  <0>0        0.1551
     11  C2         7.7560   36.6010   57.1200 C.3     0  <0>0        0.0372
     12  C1         6.2530   36.3430   57.2390 C.3     0  <0>0        0.0060
     13  C3         8.3740   35.5800   56.1610 C.3     0  <0>0        0.0060
     14  C4         7.9910   38.0130   56.5800 C.3     0  <0>0        0.0060
     15  C10       11.8180   33.4150   62.0740 C.ar    0  <0>0        0.0541
     16  C15       11.6410   32.1800   62.6980 C.ar    0  <0>0        0.0103
     17  C14       12.6890   31.6000   63.3840 C.ar    0  <0>0        0.0302
     18  C13       13.9090   32.2480   63.4650 C.ar    0  <0>0        0.0058
     19  I1        12.4290   29.7410   64.3150 I       0  <0>0       -0.0425
     20  C12       14.0900   33.4750   62.8530 C.ar    0  <0>0        0.0006
     21  C11       13.0530   34.0620   62.1580 C.ar    0  <0>0        0.0045
@<TRIPOS>BOND
     1    13    11    1
     2    14    11    1
     3    11    12    1
     4    11     7    1
     5     7     6   ar
     6     7     8   ar
     7     6     5   ar
     8     8     9   ar
     9     5     9   ar
    10     5     1    1
    11     9    10    1
    12     1     4    1
    13     1     2   am
    14     3     2    2
    15     2    15    1
    16    15    21   ar
    17    15    16   ar
    18    21    20   ar
    19    16    17   ar
    20    20    18   ar
    21    17    18   ar
    22    17    19    1
