@<TRIPOS>MOLECULE
ZINC17841686_replica-1.pdb
 29 31 0 0 0
SMALL
GASTEIGER

@<TRIPOS>ATOM
      1  C12        4.4940   35.8910   58.9940 C.3     0  <0>0        0.1369
      2  C11        5.7210   36.7460   59.1740 C.2     0  <0>0        0.2269
      3  N1         6.7640   36.6150   58.3300 N.am    0  <0>0       -0.3021
      4  H14        6.7240   35.9720   57.6070 H       0  <0>0        0.1497
      5  O1         5.7720   37.5520   60.0800 O.2     0  <0>0       -0.2749
      6  C3         7.9570   37.4470   58.5060 C.3     0  <0>0        0.0940
      7  C2         8.5860   37.7320   57.1410 C.3     0  <0>0        0.0241
      8  C1         7.7890   37.0130   56.0520 C.3     0  <0>0        0.0021
      9  C4         8.9520   36.7210   59.3750 C.ar    0  <0>0       -0.0045
     10  C9         9.3570   37.2750   60.5750 C.ar    0  <0>0       -0.0030
     11  C8        10.2660   36.6080   61.3730 C.ar    0  <0>0       -0.0045
     12  C7        10.7760   35.3880   60.9690 C.ar    0  <0>0       -0.0219
     13  C6        10.3750   34.8350   59.7670 C.ar    0  <0>0       -0.0045
     14  C10       11.7700   34.6620   61.8380 C.3     0  <0>0        0.0310
     15  C5         9.4630   35.5020   58.9700 C.ar    0  <0>0       -0.0030
     16  C13        4.1520   35.7960   57.5060 C.3     0  <0>0        0.2275
     17  N2         3.5300   34.4990   57.2300 N.am    0  <0>0       -0.1145
     18  C15        2.2030   34.2450   57.0290 C.1     0  <0>0        0.1797
     19  N4         2.0810   32.9550   56.8120 N.2     0  <0>0        0.0474
     20  S1         0.8980   35.4290   57.0530 S.2     0  <0>0        0.0561
     21  N3         3.2320   32.3870   56.8710 N.2     0  <0>0        0.0925
     22  C14        4.1600   33.2800   57.1240 C.2     0  <0>0        0.3639
     23  C16        5.6090   33.0260   57.2670 C.ar    0  <0>0        0.0854
     24  C21        6.1270   32.5920   58.4880 C.ar    0  <0>0        0.0032
     25  C20        7.4800   32.3520   58.6130 C.ar    0  <0>0       -0.0216
     26  C19        8.3240   32.5510   57.5350 C.ar    0  <0>0       -0.0042
     27  C22        8.0410   31.8770   59.9290 C.3     0  <0>0        0.0310
     28  C18        7.8180   32.9860   56.3240 C.ar    0  <0>0       -0.0001
     29  C17        6.4660   33.2250   56.1830 C.ar    0  <0>0        0.0075
@<TRIPOS>BOND
     1     8     7    1
     2    29    28   ar
     3    29    23   ar
     4    28    26   ar
     5    19    21    1
     6    19    18    2
     7    21    22    2
     8    18    20    2
     9    18    17    1
    10    22    17    1
    11    22    23    1
    12     7     6    1
    13    17    16    1
    14    23    24   ar
    15    16     1    1
    16    26    25   ar
    17     4     3    1
    18     3     6    1
    19     3     2   am
    20    24    25   ar
    21     6     9    1
    22    25    27    1
    23    15     9   ar
    24    15    13   ar
    25     1     2    1
    26     2     5    2
    27     9    10   ar
    28    13    12   ar
    29    10    11   ar
    30    12    11   ar
    31    12    14    1
