@<TRIPOS>MOLECULE
ZINC37365404_replica-1.pdb
 21 21 0 0 0
SMALL
GASTEIGER

@<TRIPOS>ATOM
      1  C7         9.3990   35.7080   60.6520 C.ar    0  <0>0        0.0673
      2  C8        10.2090   36.5850   61.3610 C.ar    0  <0>0        0.0159
      3  C9        11.3060   36.1050   62.0500 C.ar    0  <0>0        0.0052
      4  C10       11.5970   34.7530   62.0330 C.ar    0  <0>0        0.0732
      5  C11       10.7930   33.8780   61.3280 C.ar    0  <0>0        0.0292
      6  C12        9.6900   34.3500   60.6420 C.ar    0  <0>0        0.1558
      7  N1         8.2880   36.1900   59.9540 N.pl3   0  <0>0       -0.3327
      8  H14        7.4930   35.6410   59.8690 H       0  <0>0        0.1468
      9  C5         8.3250   37.5240   59.3510 C.3     0  <0>0        0.0691
     10  C6         6.9460   38.1780   59.4730 C.3     0  <0>0        0.0212
     11  C3         8.7040   37.4060   57.8740 C.3     0  <0>0        0.0179
     12  C4         8.5390   38.7670   57.1950 C.3     0  <0>0        0.0017
     13  C2         7.7920   36.3830   57.1930 C.3     0  <0>0        0.0016
     14  C1         8.0020   36.4400   55.6790 C.3     0  <0>0        0.0001
     15  N2         8.8260   33.4120   59.8930 N.pl3   0  <0>0        0.0589
     16  O1         8.1280   32.6250   60.4890 O.2     0  <0>0       -0.1261
     17  O2         8.8180   33.4310   58.6840 O.2     0  <0>0       -0.1261
     18  C13       12.7950   34.2320   62.7860 C.3     0  <0>0        0.4186
     19  F1        13.9430   34.3900   62.0020 F       0  <0>0       -0.1659
     20  F2        12.9430   34.9480   63.9800 F       0  <0>0       -0.1659
     21  F3        12.6100   32.8760   63.0750 F       0  <0>0       -0.1659
@<TRIPOS>BOND
     1    14    13    1
     2    13    11    1
     3    12    11    1
     4    11     9    1
     5    17    15    2
     6     9    10    1
     7     9     7    1
     8     8     7    1
     9    15    16    2
    10    15     6    1
    11     7     1    1
    12     6     1   ar
    13     6     5   ar
    14     1     2   ar
    15     5     4   ar
    16     2     3   ar
    17    19    18    1
    18     4     3   ar
    19     4    18    1
    20    18    21    1
    21    18    20    1
