@<TRIPOS>MOLECULE
ZINC05849090_replica-1.pdb
 31 33 0 0 0
SMALL
GASTEIGER

@<TRIPOS>ATOM
      1  N2         0.1180   33.1300   55.9100 N.am    0  <0>0       -0.2302
      2  C12       -0.1070   31.9030   56.4200 C.2     0  <0>0        0.2614
      3  O3        -0.1690   31.7460   57.6230 O.2     0  <0>0       -0.2686
      4  H15        0.1680   33.2560   54.9500 H       0  <0>0        0.1731
      5  N1         0.2820   34.2250   56.7690 N.am    0  <0>0       -0.2306
      6  C11        1.4910   34.8080   56.8960 C.2     0  <0>0        0.2825
      7  O2         2.4380   34.3810   56.2690 O.2     0  <0>0       -0.2695
      8  H14       -0.4750   34.5640   57.2740 H       0  <0>0        0.1729
      9  C10        1.6680   35.9850   57.8190 C.3     0  <0>0        0.2909
     10  O1         2.4470   35.5920   58.9490 O.3     0  <0>0       -0.4656
     11  C7         1.9890   34.5410   59.6790 C.ar    0  <0>0        0.1393
     12  C6         0.7140   34.5790   60.2250 C.ar    0  <0>0        0.0366
     13  C5         0.2490   33.5110   60.9680 C.ar    0  <0>0       -0.0012
     14  C4         1.0540   32.4030   61.1660 C.ar    0  <0>0       -0.0223
     15  C9         2.3250   32.3640   60.6230 C.ar    0  <0>0       -0.0012
     16  C8         2.7910   33.4280   59.8760 C.ar    0  <0>0        0.0366
     17  C2         0.5440   31.2390   61.9760 C.3     0  <0>0        0.0224
     18  C1        -0.4310   31.7470   63.0410 C.3     0  <0>0        0.0047
     19  C3        -0.1770   30.2540   61.0530 C.3     0  <0>0        0.0047
     20  C13       -0.2790   30.7480   55.5140 C.ar    0  <0>0        0.0548
     21  C18        0.4010   29.5550   55.7660 C.ar    0  <0>0        0.0046
     22  C17        0.2400   28.4800   54.9220 C.ar    0  <0>0        0.0001
     23  C16       -0.6030   28.5810   53.8140 C.ar    0  <0>0        0.0000
     24  C15       -1.2840   29.7720   53.5630 C.ar    0  <0>0        0.0001
     25  C14       -1.1280   30.8480   54.4080 C.ar    0  <0>0        0.0046
     26  C19       -0.7760   27.4230   52.9060 C.ar    0  <0>0        0.0000
     27  C24       -1.5200   27.5580   51.7350 C.ar    0  <0>0        0.0000
     28  C23       -1.6780   26.4760   50.8920 C.ar    0  <0>0        0.0000
     29  C22       -1.0990   25.2600   51.2080 C.ar    0  <0>0        0.0000
     30  C21       -0.3600   25.1200   52.3690 C.ar    0  <0>0        0.0000
     31  C20       -0.1920   26.1960   53.2160 C.ar    0  <0>0        0.0000
@<TRIPOS>BOND
     1    28    29   ar
     2    28    27   ar
     3    29    30   ar
     4    27    26   ar
     5    30    31   ar
     6    26    31   ar
     7    26    23    1
     8    24    23   ar
     9    24    25   ar
    10    23    22   ar
    11    25    20   ar
    12    22    21   ar
    13     4     1    1
    14    20    21   ar
    15    20     2    1
    16     1     2   am
    17     1     5    1
    18     7     6    2
    19     2     3    2
    20     5     6   am
    21     5     8    1
    22     6     9    1
    23     9    10    1
    24    10    11    1
    25    11    16   ar
    26    11    12   ar
    27    16    15   ar
    28    12    13   ar
    29    15    14   ar
    30    13    14   ar
    31    19    17    1
    32    14    17    1
    33    17    18    1
