@<TRIPOS>MOLECULE
ZINC40734952_replica-1.pdb
 30 32 0 0 0
SMALL
GASTEIGER

@<TRIPOS>ATOM
      1  C9         9.6920   35.8200   60.2660 C.ar    0  <0>0        0.1330
      2  C10        9.6400   37.1870   60.5580 C.ar    0  <0>0        0.0365
      3  C11        9.1200   38.0730   59.6660 C.ar    0  <0>0        0.0031
      4  C12        8.6260   37.6120   58.4340 C.ar    0  <0>0       -0.0002
      5  C13        8.0820   38.5000   57.4900 C.ar    0  <0>0       -0.0000
      6  C14        7.6120   38.0200   56.3060 C.ar    0  <0>0       -0.0000
      7  C15        7.6630   36.6580   56.0130 C.ar    0  <0>0       -0.0000
      8  C16        8.1830   35.7700   56.9030 C.ar    0  <0>0       -0.0003
      9  C17        8.6770   36.2270   58.1360 C.ar    0  <0>0       -0.0031
     10  C18        9.2250   35.3400   59.0760 C.ar    0  <0>0       -0.0097
     11  C19        9.2940   33.8650   58.7750 C.3     0  <0>0       -0.0512
     12  N1         8.3900   33.1390   59.6770 N.4     0  <0>0        0.3866
     13  H18        8.9270   32.6940   60.4050 H       0  <0>0       -0.0840
     14  H32        7.7350   33.7860   60.0900 H       0  <0>0       -0.0840
     15  C20        7.6560   32.1180   58.9160 C.3     0  <0>0       -0.0787
     16  C21        6.4890   32.7750   58.1760 C.3     0  <0>0        0.0088
     17  C22        5.5000   33.3510   59.1910 C.3     0  <0>0        0.1399
     18  O2         5.9510   34.6380   59.6170 O.3     0  <0>0       -0.3563
     19  C23        4.9710   35.6700   59.4840 C.3     0  <0>0        0.1154
     20  C24        5.5270   36.9780   60.0520 C.3     0  <0>0        0.0320
     21  C25        4.6290   35.8610   58.0050 C.3     0  <0>0        0.0320
     22  O1        10.2180   34.9600   61.1770 O.3     0  <0>0       -0.4710
     23  C8        11.3230   35.4300   61.9510 C.3     0  <0>0        0.2320
     24  C6        12.1730   34.2600   62.3750 C.ar    0  <0>0        0.0208
     25  C5        13.5510   34.3550   62.3310 C.ar    0  <0>0       -0.0007
     26  C4        14.3320   33.2820   62.7200 C.ar    0  <0>0       -0.0005
     27  C3        13.7330   32.1150   63.1540 C.ar    0  <0>0       -0.0043
     28  C2        12.3550   32.0190   63.2000 C.ar    0  <0>0       -0.0220
     29  C1        11.7020   30.7450   63.6720 C.3     0  <0>0        0.0310
     30  C7        11.5750   33.0910   62.8050 C.ar    0  <0>0       -0.0049
@<TRIPOS>BOND
     1     7     6   ar
     2     7     8   ar
     3     6     5   ar
     4     8     9   ar
     5     5     4   ar
     6    21    19    1
     7     9     4   ar
     8     9    10   ar
     9    16    15    1
    10    16    17    1
    11     4     3   ar
    12    11    10    1
    13    11    12    1
    14    15    12    1
    15    10     1   ar
    16    17    18    1
    17    19    18    1
    18    19    20    1
    19     3     2   ar
    20    12    14    1
    21    12    13    1
    22     1     2   ar
    23     1    22    1
    24    22    23    1
    25    23    24    1
    26    25    24   ar
    27    25    26   ar
    28    24    30   ar
    29    26    27   ar
    30    30    28   ar
    31    27    28   ar
    32    28    29    1
