@<TRIPOS>MOLECULE
ZINC25328969_replica-1.pdb
 24 25 0 0 0
SMALL
GASTEIGER

@<TRIPOS>ATOM
      1  C1         7.8830   36.7610   61.2060 C.3     0  <0>0        0.0268
      2  C2         7.4950   35.7010   60.2060 C.3     0  <0>0        0.1015
      3  C3         7.5610   35.9720   58.8940 C.2     0  <0>0        0.0646
      4  C4         7.1750   34.9510   57.8620 C.2     0  <0>0        0.0206
      5  C5         7.1170   33.5770   58.4660 C.2     0  <0>0        0.0779
      6  C6         7.0690   33.3990   59.7960 C.2     0  <0>0        0.0319
      7  N1         7.0780   34.4720   60.6500 N.pl3   0  <0>0       -0.3328
      8  C7         7.0020   32.0010   60.3570 C.3     0  <0>0        0.0476
      9  C8         7.1140   32.4330   57.6060 C.1     0  <0>0        0.1013
     10  N2         7.1100   31.5250   56.9220 N.1     0  <0>0       -0.1908
     11  C16        8.0080   37.2650   58.4670 C.1     0  <0>0        0.0977
     12  N3         8.3640   38.2890   58.1280 N.1     0  <0>0       -0.1911
     13  H5         6.7510   34.3440   61.6910 H       0  <0>0        0.1468
     14  C9         5.8230   35.3030   57.2970 C.ar    0  <0>0        0.0357
     15  C14        5.6720   35.5080   55.9340 C.ar    0  <0>0        0.1443
     16  C13        4.4260   35.8320   55.4170 C.ar    0  <0>0        0.0376
     17  C12        3.3380   35.9480   56.2600 C.ar    0  <0>0        0.0098
     18  C11        3.4910   35.7420   57.6200 C.ar    0  <0>0        0.0348
     19  C10        4.7330   35.4250   58.1380 C.ar    0  <0>0        0.0097
     20 Br          2.0000   35.9010   58.7720 Br      0  <0>0       -0.0490
     21  O1         6.7440   35.3930   55.1060 O.3     0  <0>0       -0.4236
     22  C15        7.4930   36.5830   54.8460 C.3     0  <0>0        0.5087
     23  F1         6.8210   37.6840   55.3870 F       0  <0>0       -0.1550
     24  F2         8.7580   36.4750   55.4330 F       0  <0>0       -0.1550
@<TRIPOS>BOND
     1    22    21    1
     2    22    23    1
     3    22    24    1
     4    21    15    1
     5    16    15   ar
     6    16    17   ar
     7    15    14   ar
     8    17    18   ar
     9    10     9    3
    10    14     4    1
    11    14    19   ar
    12     9     5    1
    13    18    19   ar
    14    18    20    1
    15     4     5    1
    16     4     3    2
    17    12    11    3
    18     5     6    2
    19    11     3    1
    20     3     2    1
    21     6     8    1
    22     6     7    1
    23     2     7    1
    24     2     1    1
    25     7    13    1
