@<TRIPOS>MOLECULE
ZINC16243693_replica-1.pdb
 24 26 0 0 0
SMALL
GASTEIGER

@<TRIPOS>ATOM
      1  C1        -1.3980   30.0320   56.3940 C.3     0  <0>0        0.0261
      2  C2        -0.7600   29.9350   55.0070 C.3     0  <0>0        0.0932
      3  C3        -0.3620   28.5070   54.7360 C.ar    0  <0>0       -0.0045
      4  C8        -0.7140   27.8940   53.5220 C.ar    0  <0>0       -0.0024
      5  C7        -0.3260   26.5520   53.2820 C.ar    0  <0>0       -0.0003
      6  C9        -1.4390   28.5880   52.5370 C.ar    0  <0>0       -0.0003
      7  C6         0.3930   25.8570   54.2690 C.ar    0  <0>0       -0.0000
      8  C12       -0.6720   25.9420   52.0650 C.ar    0  <0>0       -0.0000
      9  C5         0.7110   26.4810   55.4360 C.ar    0  <0>0       -0.0003
     10  C4         0.3340   27.8020   55.6690 C.ar    0  <0>0       -0.0027
     11  C11       -1.3850   26.6400   51.1400 C.ar    0  <0>0       -0.0000
     12  C10       -1.7620   27.9620   51.3720 C.ar    0  <0>0       -0.0000
     13  N1         0.4280   30.7910   54.9560 N.am    0  <0>0       -0.3138
     14  H12        1.0080   30.7700   54.1790 H       0  <0>0        0.1487
     15  C13        0.7140   31.6090   55.9890 C.2     0  <0>0        0.1353
     16  S1         1.6390   31.0290   57.3070 S.2     0  <0>0       -0.0185
     17  N2         0.2730   32.8820   55.9830 N.am    0  <0>0       -0.2959
     18  H13       -0.3210   33.1870   55.2780 H       0  <0>0        0.1539
     19  C14        0.6700   33.7650   56.9930 C.ar    0  <0>0        0.0495
     20  C19        1.5770   34.7790   56.7130 C.ar    0  <0>0        0.0146
     21  C18        1.9630   35.6520   57.7100 C.ar    0  <0>0        0.0013
     22  C17        1.4550   35.5120   58.9890 C.ar    0  <0>0        0.0001
     23  C16        0.5560   34.5010   59.2720 C.ar    0  <0>0        0.0013
     24  C15        0.1630   33.6260   58.2780 C.ar    0  <0>0        0.0146
@<TRIPOS>BOND
     1    11    12   ar
     2    11     8   ar
     3    12     6   ar
     4     8     5   ar
     5     6     4   ar
     6     5     4   ar
     7     5     7   ar
     8     4     3   ar
     9    14    13    1
    10     7     9   ar
    11     3     2    1
    12     3    10   ar
    13    13     2    1
    14    13    15    1
    15     2     1    1
    16    18    17    1
    17     9    10   ar
    18    17    15    1
    19    17    19    1
    20    15    16    2
    21    20    19   ar
    22    20    21   ar
    23    19    24   ar
    24    21    22   ar
    25    24    23   ar
    26    22    23   ar
