@<TRIPOS>MOLECULE
ZINC04031791_replica-1.pdb
 19 21 0 0 0
SMALL
GASTEIGER

@<TRIPOS>ATOM
      1  C6         9.2980   36.3840   60.2680 C.3     0  <0>0        0.0036
      2  C7         9.2310   37.8950   60.0440 C.3     0  <0>0        0.0001
      3  C8         8.1350   38.2120   59.0250 C.3     0  <0>0        0.0000
      4  C9         6.7880   37.7150   59.5550 C.3     0  <0>0        0.0000
      5  C10        6.8540   36.2040   59.7800 C.3     0  <0>0        0.0000
      6  C11        7.9510   35.8870   60.7990 C.3     0  <0>0        0.0001
      7  C12        7.1690   35.5040   58.4560 C.3     0  <0>0        0.0000
      8  C13        8.5160   36.0010   57.9270 C.3     0  <0>0        0.0000
      9  C14        8.4500   37.5130   57.7020 C.3     0  <0>0        0.0000
     10  C15        9.6140   35.6840   58.9440 C.3     0  <0>0        0.0001
     11  C5        10.3940   36.0670   61.2870 C.3     0  <0>0        0.0475
     12  C4        11.0580   34.7360   60.9240 C.3     0  <0>0        0.2101
     13  O2        10.7330   33.7570   61.9120 O.3     0  <0>0       -0.4347
     14  C3        11.7520   33.2600   62.6380 C.2     0  <0>0        0.4016
     15  N1        11.9500   31.9270   62.6980 N.am    0  <0>0       -0.2707
     16  H6        11.3580   31.3280   62.2180 H       0  <0>0        0.1527
     17  O1        12.4930   34.0120   63.2390 O.2     0  <0>0       -0.2264
     18  C2        13.0590   31.3860   63.4870 C.3     0  <0>0        0.0928
     19  C1        12.6290   30.0680   64.1340 C.3     0  <0>0        0.0231
@<TRIPOS>BOND
     1     9     8    1
     2     9     3    1
     3     8     7    1
     4     8    10    1
     5     7     5    1
     6    10     1    1
     7     3     4    1
     8     3     2    1
     9     4     5    1
    10     5     6    1
    11     2     1    1
    12     1     6    1
    13     1    11    1
    14    12    11    1
    15    12    13    1
    16    13    14    1
    17    16    15    1
    18    14    15   am
    19    14    17    2
    20    15    18    1
    21    18    19    1
