@<TRIPOS>MOLECULE
ZINC02772286_replica-1.pdb
 36 40 0 0 0
SMALL
GASTEIGER

@<TRIPOS>ATOM
      1  C1         2.6140   31.9380   56.8060 C.3     0  <0>0        0.0018
      2  C2         1.1250   32.0780   57.1270 C.3     0  <0>0        0.0197
      3  C3         0.7850   33.5070   57.5220 C.3     0  <0>0        0.0212
      4  C4         1.1970   33.8560   58.9410 C.3     0  <0>0        0.0719
      5  C5         0.6600   32.8560   59.9480 C.3     0  <0>0        0.0196
      6  C6         0.9800   31.4100   59.6050 C.3     0  <0>0        0.0016
      7  C7         0.6860   31.0580   58.1600 C.3     0  <0>0        0.0017
      8  C8         2.4290   31.0720   59.9710 C.3     0  <0>0        0.0001
      9  C9         0.0770   30.5180   60.4920 C.3     0  <0>0        0.0001
     10  C19        0.3560   31.7700   55.8180 C.3     0  <0>0        0.0896
     11  N2         0.6300   30.3920   55.4040 N.am    0  <0>0       -0.3009
     12  C20       -0.3870   29.5230   55.2410 C.2     0  <0>0        0.2460
     13  O2        -1.5330   29.8820   55.4380 O.2     0  <0>0       -0.2701
     14  H29        1.5420   30.1040   55.2470 H       0  <0>0        0.1497
     15  C21       -0.1120   28.1370   54.8270 C.ar    0  <0>0        0.0560
     16  C24       -0.5490   27.6370   53.5370 C.ar    0  <0>0       -0.0153
     17  C23       -0.2170   26.3470   53.3050 C.ar    0  <0>0        0.0035
     18  C25       -1.3120   28.4540   52.5050 C.3     0  <0>0        0.0267
     19  S2         0.6370   25.8390   54.7690 S.2     0  <0>0       -0.0910
     20  C28       -0.5200   25.5460   52.0760 C.3     0  <0>0        0.0326
     21  C22        0.5650   27.2670   55.6490 C.ar    0  <0>0        0.0393
     22  C27       -1.6030   26.2900   51.2750 C.3     0  <0>0        0.0055
     23  C26       -1.1950   27.7600   51.1460 C.3     0  <0>0        0.0050
     24  N1         2.6370   34.0450   59.0670 N.am    0  <0>0       -0.3025
     25  C10        3.1660   35.2820   58.9800 C.2     0  <0>0        0.2460
     26  O1         2.4410   36.2410   58.7960 O.2     0  <0>0       -0.2701
     27  H17        3.2160   33.2800   59.2130 H       0  <0>0        0.1497
     28  C11        4.6190   35.4720   59.1080 C.ar    0  <0>0        0.0560
     29  C14        5.4420   35.7880   57.9560 C.ar    0  <0>0       -0.0153
     30  C13        6.7560   35.9340   58.2410 C.ar    0  <0>0        0.0035
     31  C15        4.9170   35.9560   56.5380 C.3     0  <0>0        0.0267
     32  S1         6.8680   35.6440   59.9810 S.2     0  <0>0       -0.0910
     33  C18        7.8540   36.2610   57.2770 C.3     0  <0>0        0.0326
     34  C12        5.2500   35.3490   60.3250 C.ar    0  <0>0        0.0393
     35  C17        7.3270   36.0280   55.8510 C.3     0  <0>0        0.0055
     36  C16        5.9630   36.7110   55.7150 C.3     0  <0>0        0.0050
@<TRIPOS>BOND
     1    23    22    1
     2    23    18    1
     3    22    20    1
     4    20    17    1
     5    18    16    1
     6    17    16   ar
     7    17    19   ar
     8    16    15   ar
     9    19    21   ar
    10    15    12    1
    11    15    21   ar
    12    12    11   am
    13    12    13    2
    14    14    11    1
    15    11    10    1
    16    36    35    1
    17    36    31    1
    18    10     2    1
    19    35    33    1
    20    31    29    1
    21     1     2    1
    22     2     3    1
    23     2     7    1
    24    33    30    1
    25     3     4    1
    26    29    30   ar
    27    29    28   ar
    28     7     6    1
    29    30    32   ar
    30    26    25    2
    31     4    24    1
    32     4     5    1
    33    25    24   am
    34    25    28    1
    35    24    27    1
    36    28    34   ar
    37     6     5    1
    38     6     8    1
    39     6     9    1
    40    32    34   ar
