@<TRIPOS>MOLECULE
ZINC40041923_replica-1.pdb
 27 30 0 0 0
SMALL
GASTEIGER

@<TRIPOS>ATOM
      1  N1         7.6520   36.5710   57.9880 N.am    0  <0>0       -0.2675
      2  C4         7.6740   35.1140   58.1930 C.3     0  <0>0        0.1270
      3  C5         8.7850   34.8540   59.1550 C.ar    0  <0>0        0.0780
      4  C6         9.2830   33.6060   59.7440 C.ar    0  <0>0        0.1995
      5  O1         8.9260   32.5030   59.3690 O.2     0  <0>0       -0.2866
      6  C7        10.2620   33.8150   60.8400 C.ar    0  <0>0        0.0730
      7  C8        10.6760   32.7430   61.6300 C.ar    0  <0>0        0.0020
      8  C9        11.5750   32.9530   62.6400 C.ar    0  <0>0       -0.0219
      9  C10       12.0740   34.2260   62.8780 C.ar    0  <0>0       -0.0011
     10  C11       11.6780   35.2950   62.1050 C.ar    0  <0>0        0.0373
     11  C12       10.7630   35.1060   61.0690 C.ar    0  <0>0        0.1485
     12  O2        10.3950   36.1690   60.3170 O.2     0  <0>0       -0.4489
     13  C13        9.3530   36.0560   59.4690 C.ar    0  <0>0        0.1994
     14  C14        8.6380   37.1130   58.7320 C.2     0  <0>0        0.2840
     15  O3         8.8970   38.2980   58.7890 O.2     0  <0>0       -0.2666
     16  C17        6.3620   34.6510   58.7720 C.ar    0  <0>0        0.0001
     17  C22        5.5050   33.8760   58.0130 C.ar    0  <0>0       -0.0018
     18  C21        4.3050   33.4480   58.5460 C.ar    0  <0>0        0.0064
     19  C20        3.9560   33.8020   59.8370 C.ar    0  <0>0        0.0345
     20  C19        4.8110   34.5820   60.5950 C.ar    0  <0>0        0.0064
     21 Br          2.3100   33.2210   60.5650 Br      0  <0>0       -0.0490
     22  C18        6.0140   35.0050   60.0620 C.ar    0  <0>0       -0.0018
     23  C3         6.7260   37.3050   57.1210 C.3     0  <0>0        0.0944
     24  C2         7.4360   37.6810   55.8180 C.3     0  <0>0        0.0215
     25  C1         7.5740   36.4380   54.9360 C.3     0  <0>0        0.0018
     26  C15       12.0250   31.7980   63.4960 C.3     0  <0>0        0.0264
     27  C16       13.5520   31.7080   63.4700 C.3     0  <0>0        0.0050
@<TRIPOS>BOND
     1    25    24    1
     2    24    23    1
     3    23     1    1
     4     1     2    1
     5     1    14   am
     6    17    18   ar
     7    17    16   ar
     8     2    16    1
     9     2     3    1
    10    18    19   ar
    11    14    15    2
    12    14    13    1
    13    16    22   ar
    14     3    13   ar
    15     3     4   ar
    16     5     4    2
    17    13    12   ar
    18     4     6   ar
    19    19    21    1
    20    19    20   ar
    21    22    20   ar
    22    12    11   ar
    23     6    11   ar
    24     6     7   ar
    25    11    10   ar
    26     7     8   ar
    27    10     9   ar
    28     8     9   ar
    29     8    26    1
    30    27    26    1
