@<TRIPOS>MOLECULE
ZINC21821423_replica-1.pdb
 19 20 0 0 0
SMALL
GASTEIGER

@<TRIPOS>ATOM
      1  S1        -1.3810   29.8440   53.8950 S.3     0  <0>0        0.0507
      2  O1        -2.3450   30.5420   53.1180 O.3     0  <0>0       -0.0570
      3  O2        -0.0920   30.3770   54.1660 O.3     0  <0>0       -0.0570
      4  C5        -1.1270   28.2900   53.1050 C.ar    0  <0>0        0.1203
      5  C4        -1.6780   28.0490   51.8590 C.ar    0  <0>0        0.0195
      6  C3        -1.4800   26.8300   51.2400 C.ar    0  <0>0       -0.0029
      7  C2        -0.7300   25.8510   51.8640 C.ar    0  <0>0       -0.0218
      8  C1        -0.5130   24.5220   51.1890 C.3     0  <0>0        0.0310
      9  C7        -0.1790   26.0910   53.1090 C.ar    0  <0>0       -0.0029
     10  C6        -0.3730   27.3130   53.7270 C.ar    0  <0>0        0.0195
     11  O3        -2.0290   29.5640   55.2420 O.3     0  <0>0       -0.3549
     12  C8        -1.2720   29.9420   56.3090 C.ar    0  <0>0        0.1990
     13  C13       -0.7070   28.9800   57.1360 C.ar    0  <0>0        0.1771
     14  C12        0.0570   29.3670   58.2210 C.ar    0  <0>0        0.0396
     15  F1        -0.9070   27.6670   56.8830 F       0  <0>0       -0.2009
     16  C11        0.2610   30.7110   58.4800 C.ar    0  <0>0        0.0370
     17  C10       -0.2970   31.6690   57.6540 C.ar    0  <0>0        0.0101
     18 Br          1.3070   31.2380   59.9650 Br      0  <0>0       -0.0489
     19  C9        -1.0610   31.2870   56.5680 C.ar    0  <0>0        0.0426
@<TRIPOS>BOND
     1     8     7    1
     2     6     5   ar
     3     6     7   ar
     4     5     4   ar
     5     7     9   ar
     6     4    10   ar
     7     4     1    1
     8     9    10   ar
     9     2     1    1
    10     1     3    1
    11     1    11    1
    12    11    12    1
    13    12    19   ar
    14    12    13   ar
    15    19    17   ar
    16    15    13    1
    17    13    14   ar
    18    17    16   ar
    19    14    16   ar
    20    16    18    1
