@<TRIPOS>MOLECULE
ZINC52250260_replica-1.pdb
 20 20 0 0 0
SMALL
GASTEIGER

@<TRIPOS>ATOM
      1  C7        -0.4520   28.9720   54.9880 C.3     0  <0>0        0.1169
      2  C3        -0.7960   28.4790   56.3940 C.3     0  <0>0        0.1274
      3  C2        -2.2840   28.7050   56.6660 C.3     0  <0>0        0.0138
      4  C1        -2.7940   27.6360   57.6350 C.3     0  <0>0        0.0007
      5  C4         0.0210   29.2390   57.4070 C.2     0  <0>0        0.3191
      6  O1         1.0360   28.7560   57.8510 O.2     0  <0>0       -0.2500
      7  O2        -0.3780   30.4540   57.8160 O.3     0  <0>0       -0.4484
      8  C5         0.6440   31.4190   58.0760 C.3     0  <0>0        0.2086
      9  C6         0.1170   32.8190   57.7520 C.3     0  <0>0        0.0513
     10  C8        -1.5000   29.9920   54.5350 C.3     0  <0>0        0.0317
     11  C9        -0.8490   31.3710   54.4100 C.3     0  <0>0        0.0029
     12  C10       -0.4410   27.8050   54.0350 C.ar    0  <0>0        0.0023
     13  C15        0.1880   26.6270   54.3920 C.ar    0  <0>0       -0.0012
     14  C14        0.1940   25.5550   53.5200 C.ar    0  <0>0        0.0111
     15  C13       -0.4190   25.6650   52.2840 C.ar    0  <0>0        0.0577
     16  C12       -1.0420   26.8460   51.9250 C.ar    0  <0>0        0.0111
     17 Cl         -0.4060   24.3210   51.1860 Cl      0  <0>0       -0.0822
     18  C11       -1.0520   27.9160   52.8000 C.ar    0  <0>0       -0.0012
     19  O3         0.8370   29.5890   55.0010 O.3     0  <0>0       -0.3821
     20  H21        1.1240   29.8830   55.8760 H       0  <0>0        0.2107
@<TRIPOS>BOND
     1    17    15    1
     2    16    15   ar
     3    16    18   ar
     4    15    14   ar
     5    18    12   ar
     6    14    13   ar
     7    12    13   ar
     8    12     1    1
     9    11    10    1
    10    10     1    1
    11     1    19    1
    12     1     2    1
    13    19    20    1
    14     2     3    1
    15     2     5    1
    16     3     4    1
    17     5     7    1
    18     5     6    2
    19     9     8    1
    20     7     8    1
