@<TRIPOS>MOLECULE
ZINC48441918_replica-1.pdb
 20 21 0 0 0
SMALL
GASTEIGER

@<TRIPOS>ATOM
      1  S1         7.1930   36.7850   55.9080 S.O2    0  <0>0        0.0766
      2  O1         6.4770   38.0100   55.8290 O.2     0  <0>0       -0.1497
      3  O2         8.1520   36.3980   54.9320 O.2     0  <0>0       -0.1497
      4  C4         8.0290   36.7870   57.4590 C.ar    0  <0>0        0.1251
      5  C3         8.7050   35.6590   57.8820 C.ar    0  <0>0        0.0164
      6  C2         9.3610   35.6610   59.0990 C.ar    0  <0>0       -0.0143
      7  C1        10.0990   34.4300   59.5590 C.3     0  <0>0        0.0316
      8  C7         9.3360   36.7920   59.8950 C.ar    0  <0>0        0.0307
      9  C6         8.6640   37.9230   59.4690 C.ar    0  <0>0        0.0078
     10 Br         10.2270   36.7930   61.5630 Br      0  <0>0       -0.0493
     11  C5         8.0080   37.9190   58.2530 C.ar    0  <0>0        0.0207
     12  N1         6.0620   35.5770   55.9640 N.pl3   0  <0>0       -0.1888
     13  C8         6.2680   34.3450   55.1980 C.3     0  <0>0        0.1392
     14  C9         4.9100   35.7320   56.7410 C.ar    0  <0>0        0.0690
     15  C14        4.9810   35.6030   58.1220 C.ar    0  <0>0        0.0184
     16  C13        3.8430   35.7630   58.8890 C.ar    0  <0>0        0.0310
     17  C12        2.6300   36.0380   58.2800 C.ar    0  <0>0        0.1402
     18  C11        2.5560   36.1620   56.9040 C.ar    0  <0>0        0.0310
     19  F1         1.5180   36.1880   59.0320 F       0  <0>0       -0.2042
     20  C10        3.6920   36.0090   56.1340 C.ar    0  <0>0        0.0184
@<TRIPOS>BOND
     1     3     1    2
     2    13    12    1
     3     2     1    2
     4     1    12    1
     5     1     4    1
     6    12    14    1
     7    20    14   ar
     8    20    18   ar
     9    14    15   ar
    10    18    17   ar
    11     4     5   ar
    12     4    11   ar
    13     5     6   ar
    14    15    16   ar
    15    11     9   ar
    16    17    16   ar
    17    17    19    1
    18     6     7    1
    19     6     8   ar
    20     9     8   ar
    21     8    10    1
