@<TRIPOS>MOLECULE
ZINC45652026_replica-1.pdb
 26 28 0 0 0
SMALL
GASTEIGER

@<TRIPOS>ATOM
      1  N1         1.6790   33.4920   56.2520 N.am    0  <0>0       -0.3017
      2  C9         1.3610   32.2050   56.4900 C.2     0  <0>0        0.2227
      3  O1         1.7680   31.6550   57.4910 O.2     0  <0>0       -0.2751
      4  H13        1.3540   33.9320   55.4520 H       0  <0>0        0.1497
      5  C10        0.5010   31.4480   55.5120 C.3     0  <0>0        0.0854
      6  C11       -0.9160   31.3140   56.0740 C.3     0  <0>0        0.0143
      7  C12       -1.3970   29.8720   55.9070 C.3     0  <0>0        0.0284
      8  C13       -1.7460   29.6230   54.4620 C.ar    0  <0>0       -0.0038
      9  C16       -1.2780   28.5110   53.6310 C.ar    0  <0>0        0.0130
     10  C15       -1.8660   28.6960   52.3670 C.ar    0  <0>0        0.0563
     11  C17       -0.4410   27.4170   53.8560 C.ar    0  <0>0        0.0012
     12  N2        -2.6250   29.8430   52.4350 N.ar    0  <0>0       -0.3523
     13  C20       -1.6060   27.7810   51.3530 C.ar    0  <0>0        0.0170
     14  C14       -2.5410   30.3820   53.6910 C.ar    0  <0>0        0.0681
     15  H2        -3.1410   30.2150   51.7030 H       0  <0>0        0.1660
     16  C19       -0.7690   26.7120   51.5940 C.ar    0  <0>0        0.0015
     17  C18       -0.1940   26.5320   52.8440 C.ar    0  <0>0        0.0001
     18  C4         2.5160   34.2280   57.2030 C.3     0  <0>0        0.0999
     19  C2         1.7310   35.4190   57.7580 C.3     0  <0>0        0.0227
     20  C1         0.5560   35.7330   56.8300 C.3     0  <0>0        0.0021
     21  C3         1.2020   35.0770   59.1520 C.3     0  <0>0        0.0021
     22  C5         3.7550   34.7250   56.5040 C.ar    0  <0>0        0.0250
     23  S1         4.9180   33.8190   55.4960 S.2     0  <0>0       -0.0892
     24  C8         6.0180   35.1700   55.1060 C.ar    0  <0>0        0.0352
     25  C7         5.4380   36.2020   55.7640 C.ar    0  <0>0        0.0072
     26  C6         4.2780   35.9750   56.4810 C.ar    0  <0>0        0.0043
@<TRIPOS>BOND
     1    13    16   ar
     2    13    10   ar
     3    16    17   ar
     4    15    12    1
     5    10    12   ar
     6    10     9   ar
     7    12    14   ar
     8    17    11   ar
     9     9    11   ar
    10     9     8   ar
    11    14     8   ar
    12     8     7    1
    13    24    23   ar
    14    24    25   ar
    15     4     1    1
    16    23    22   ar
    17     5     6    1
    18     5     2    1
    19    25    26   ar
    20     7     6    1
    21     1     2   am
    22     1    18    1
    23    26    22   ar
    24     2     3    2
    25    22    18    1
    26    20    19    1
    27    18    19    1
    28    19    21    1
