@<TRIPOS>MOLECULE
ZINC07584000_replica-1.pdb
 23 24 0 0 0
SMALL
GASTEIGER

@<TRIPOS>ATOM
      1  C9        -0.3330   29.5890   56.1670 C.2     0  <0>0        0.1353
      2  S1        -1.8070   29.0810   56.8730 S.2     0  <0>0       -0.0185
      3  N2         0.7060   29.9380   56.9530 N.am    0  <0>0       -0.3138
      4  H12        1.5420   30.2250   56.5530 H       0  <0>0        0.1487
      5  N1        -0.2100   29.6410   54.8260 N.am    0  <0>0       -0.2959
      6  H11       -0.0540   30.4900   54.3860 H       0  <0>0        0.1539
      7  C5        -0.3100   28.4690   54.0700 C.ar    0  <0>0        0.0492
      8  C4         0.3200   27.3070   54.5000 C.ar    0  <0>0        0.0143
      9  C3         0.2160   26.1500   53.7530 C.ar    0  <0>0       -0.0033
     10  C2        -0.5040   26.1490   52.5730 C.ar    0  <0>0       -0.0257
     11  C1        -0.6110   24.8850   51.7590 C.3     0  <0>0        0.0307
     12  C7        -1.1280   27.3050   52.1390 C.ar    0  <0>0       -0.0246
     13  C6        -1.0330   28.4640   52.8840 C.ar    0  <0>0        0.0101
     14  C8        -1.9120   27.2980   50.8530 C.3     0  <0>0        0.0307
     15  C10        0.5730   29.8800   58.4110 C.3     0  <0>0        0.0932
     16  C11        1.7530   29.1070   59.0010 C.3     0  <0>0        0.0261
     17  C12        0.5610   31.2810   58.9690 C.ar    0  <0>0       -0.0044
     18  C17        0.3580   32.3580   58.1250 C.ar    0  <0>0       -0.0004
     19  C16        0.3460   33.6430   58.6360 C.ar    0  <0>0        0.0294
     20  C15        0.5360   33.8500   59.9920 C.ar    0  <0>0        0.1401
     21  C14        0.7400   32.7710   60.8340 C.ar    0  <0>0        0.0294
     22  F1         0.5240   35.1050   60.4910 F       0  <0>0       -0.2042
     23  C13        0.7460   31.4870   60.3220 C.ar    0  <0>0       -0.0004
@<TRIPOS>BOND
     1    14    12    1
     2    11    10    1
     3    12    10   ar
     4    12    13   ar
     5    10     9   ar
     6    13     7   ar
     7     9     8   ar
     8     7     8   ar
     9     7     5    1
    10     6     5    1
    11     5     1    1
    12     1     2    2
    13     1     3    1
    14     4     3    1
    15     3    15    1
    16    18    19   ar
    17    18    17   ar
    18    15    17    1
    19    15    16    1
    20    19    20   ar
    21    17    23   ar
    22    20    22    1
    23    20    21   ar
    24    23    21   ar
