@<TRIPOS>MOLECULE
ZINC29888590_replica-1.pdb
 29 31 0 0 0
SMALL
GASTEIGER

@<TRIPOS>ATOM
      1  C12        2.4340   32.1820   56.4270 C.3     0  <0>0        0.1489
      2  C11        1.0320   31.7660   56.0630 C.2     0  <0>0        0.2341
      3  N1         0.7900   30.5090   55.6420 N.am    0  <0>0       -0.3015
      4  H14        1.6160   29.7860   55.5640 H       0  <0>0        0.1497
      5  O1         0.1210   32.5630   56.1500 O.2     0  <0>0       -0.2741
      6  C9        -0.5730   30.1060   55.2880 C.3     0  <0>0        0.0941
      7  C10       -1.3650   29.8110   56.5630 C.3     0  <0>0        0.0262
      8  C5        -0.5240   28.8660   54.4320 C.ar    0  <0>0       -0.0048
      9  C4         0.1970   27.7640   54.8520 C.ar    0  <0>0       -0.0030
     10  C3         0.2430   26.6270   54.0670 C.ar    0  <0>0       -0.0048
     11  C2        -0.4320   26.5930   52.8600 C.ar    0  <0>0       -0.0258
     12  C1        -0.3830   25.3530   52.0040 C.3     0  <0>0        0.0307
     13  C7        -1.1510   27.6960   52.4400 C.ar    0  <0>0       -0.0260
     14  C6        -1.2010   28.8300   53.2280 C.ar    0  <0>0       -0.0073
     15  C8        -1.8860   27.6590   51.1250 C.3     0  <0>0        0.0307
     16  S1         2.5380   33.9920   56.4590 S.3     0  <0>0       -0.0768
     17  C13        4.2440   34.3160   56.7640 C.ar    0  <0>0        0.1611
     18  S2         5.2400   35.7100   56.2560 S.2     0  <0>0       -0.0242
     19  C14        6.7780   35.1830   56.9980 C.ar    0  <0>0        0.1865
     20  N3         6.4240   34.0340   57.5410 N.ar    0  <0>0       -0.1249
     21  N2         5.1280   33.5900   57.4220 N.ar    0  <0>0       -0.1331
     22  N4         8.0170   35.8130   56.9980 N.pl3   0  <0>0       -0.2913
     23  H17        8.4480   36.1780   56.0540 H       0  <0>0        0.1541
     24  C15        8.7160   35.9810   58.1950 C.ar    0  <0>0        0.0498
     25  C20        9.5880   34.9920   58.6370 C.ar    0  <0>0        0.0147
     26  C19       10.2770   35.1620   59.8220 C.ar    0  <0>0        0.0013
     27  C18       10.1010   36.3130   60.5680 C.ar    0  <0>0        0.0001
     28  C17        9.2340   37.2980   60.1310 C.ar    0  <0>0        0.0013
     29  C16        8.5460   37.1380   58.9450 C.ar    0  <0>0        0.0147
@<TRIPOS>BOND
     1    15    13    1
     2    12    11    1
     3    13    11   ar
     4    13    14   ar
     5    11    10   ar
     6    14     8   ar
     7    10     9   ar
     8     8     9   ar
     9     8     6    1
    10     6     3    1
    11     6     7    1
    12     4     3    1
    13     3     2   am
    14    23    22    1
    15     2     5    2
    16     2     1    1
    17    18    17   ar
    18    18    19   ar
    19     1    16    1
    20    16    17    1
    21    17    21   ar
    22    19    22    1
    23    19    20   ar
    24    22    24    1
    25    21    20   ar
    26    24    25   ar
    27    24    29   ar
    28    25    26   ar
    29    29    28   ar
    30    26    27   ar
    31    28    27   ar
