@<TRIPOS>MOLECULE
ZINC09158004_replica-1.pdb
 29 32 0 0 0
SMALL
GASTEIGER

@<TRIPOS>ATOM
      1  C8         2.4410   35.8720   58.1840 C.ar    0  <0>0        0.1518
      2  C9         2.4000   36.0100   56.7990 C.ar    0  <0>0        0.0379
      3  C10        3.5610   36.0690   56.0810 C.ar    0  <0>0        0.0095
      4  C11        4.7900   35.9810   56.7360 C.ar    0  <0>0        0.0767
      5  C12        4.8430   35.8370   58.1310 C.ar    0  <0>0        0.1516
      6  C13        3.6540   35.7840   58.8470 C.ar    0  <0>0        0.0752
      7  O3         6.1320   35.7730   58.5330 O.3     0  <0>0       -0.4500
      8  C14        6.9900   35.8660   57.4900 C.2     0  <0>0        0.1841
      9  C15        8.3440   35.8350   57.5620 C.2     0  <0>0        0.0425
     10  C22        6.1860   36.0060   56.2660 C.2     0  <0>0        0.2327
     11  O4         6.5870   36.1160   55.1210 O.2     0  <0>0       -0.2832
     12  O2         1.2830   35.8190   58.8900 O.3     0  <0>0       -0.4209
     13  C7         0.6370   34.6360   58.9180 C.2     0  <0>0        0.3479
     14  O1         0.1100   34.2070   57.9110 O.2     0  <0>0       -0.2444
     15  C5         0.5700   33.8620   60.1720 C.ar    0  <0>0        0.1034
     16  C4         1.2810   32.6640   60.2980 C.ar    0  <0>0        0.1463
     17  C3         1.2130   31.9440   61.4770 C.ar    0  <0>0        0.0299
     18  F1         2.0330   32.2110   59.2700 F       0  <0>0       -0.2040
     19  C2         0.4440   32.4060   62.5280 C.ar    0  <0>0        0.0023
     20  C1        -0.2620   33.5920   62.4100 C.ar    0  <0>0        0.0004
     21  C6        -0.2090   34.3180   61.2390 C.ar    0  <0>0        0.0087
     22  C16        9.0080   35.6900   58.8640 C.ar    0  <0>0        0.0243
     23  C21        9.3320   36.8240   59.6200 C.ar    0  <0>0        0.0586
     24  C20        9.9550   36.6780   60.8420 C.ar    0  <0>0        0.0114
     25 Cl          8.9490   38.4090   59.0210 Cl      0  <0>0       -0.0822
     26  C19       10.2610   35.4170   61.3220 C.ar    0  <0>0        0.0017
     27  C18        9.9440   34.2900   60.5820 C.ar    0  <0>0        0.0114
     28  C17        9.3150   34.4180   59.3600 C.ar    0  <0>0        0.0586
     29 Cl          8.9130   33.0020   58.4370 Cl      0  <0>0       -0.0822
@<TRIPOS>BOND
     1    11    10    2
     2     3     4   ar
     3     3     2   ar
     4    10     4    1
     5    10     8    1
     6     4     5   ar
     7     2     1   ar
     8     8     9    2
     9     8     7    1
    10     9    22    1
    11    14    13    2
    12     5     7    1
    13     5     6   ar
    14     1     6   ar
    15     1    12    1
    16    29    28    1
    17    22    28   ar
    18    22    23   ar
    19    12    13    1
    20    13    15    1
    21    25    23    1
    22    18    16    1
    23    28    27   ar
    24    23    24   ar
    25    15    16   ar
    26    15    21   ar
    27    16    17   ar
    28    27    26   ar
    29    24    26   ar
    30    21    20   ar
    31    17    19   ar
    32    20    19   ar
