@<TRIPOS>MOLECULE
ZINC37071958_replica-1.pdb
 17 17 0 0 0
SMALL
GASTEIGER

@<TRIPOS>ATOM
      1  C7        10.8030   35.0880   60.7780 C.ar    0  <0>0        0.0509
      2  C8        10.1330   34.8190   59.5880 C.ar    0  <0>0        0.0155
      3  C9         9.2620   35.7460   59.0610 C.ar    0  <0>0        0.0116
      4  C10        9.0490   36.9580   59.7240 C.ar    0  <0>0        0.0690
      5  C11        9.7220   37.2260   60.9200 C.ar    0  <0>0        0.0182
      6  C12       10.5890   36.2920   61.4440 C.ar    0  <0>0        0.0483
      7 Br         11.4950   36.6490   63.0640 Br      0  <0>0       -0.0477
      8  C13        8.1430   37.9250   59.1800 C.1     0  <0>0        0.1004
      9  N2         7.4240   38.6910   58.7470 N.1     0  <0>0       -0.1908
     10  N1        11.6830   34.1480   61.3070 N.pl3   0  <0>0       -0.3323
     11  H14       12.6300   34.2040   61.1060 H       0  <0>0        0.1468
     12  C6        11.1790   33.0740   62.1660 C.3     0  <0>0        0.0870
     13  C4        12.2320   32.7280   63.2210 C.3     0  <0>0        0.0195
     14  C5        12.6710   31.2730   63.0450 C.3     0  <0>0        0.0017
     15  C3        13.4420   33.6500   63.0560 C.3     0  <0>0        0.0017
     16  C2        14.7070   32.9150   63.5020 C.3     0  <0>0        0.0001
     17  C1        15.4510   33.7620   64.5370 C.3     0  <0>0        0.0000
@<TRIPOS>BOND
     1     9     8    3
     2     3     2   ar
     3     3     4   ar
     4     8     4    1
     5     2     1   ar
     6     4     5   ar
     7     1    10    1
     8     1     6   ar
     9     5     6   ar
    10    11    10    1
    11    10    12    1
    12     6     7    1
    13    12    13    1
    14    14    13    1
    15    15    13    1
    16    15    16    1
    17    16    17    1
