@<TRIPOS>MOLECULE
ZINC41706057_replica-1.pdb
 19 21 0 0 0
SMALL
GASTEIGER

@<TRIPOS>ATOM
      1  C1         6.9240   34.4070   58.5670 C.3     0  <0>0        0.0008
      2  C2         8.2210   34.4050   57.7550 C.3     0  <0>0        0.0128
      3  C3         9.4080   34.2060   58.7030 C.3     0  <0>0        0.0447
      4  C4         9.5500   35.4210   59.5820 C.ar    0  <0>0        0.0455
      5  C5         9.0080   36.6570   59.2520 C.ar    0  <0>0        0.0482
      6  C6         9.3480   37.5670   60.3330 C.ar    0  <0>0        0.0230
      7  C7        10.0560   36.8400   61.2210 C.ar    0  <0>0        0.0812
      8  N1        10.1740   35.5530   60.7610 N.ar    0  <0>0       -0.2939
      9  C13        8.2580   36.8690   58.0100 C.2     0  <0>0        0.1742
     10  O1         7.6140   37.8760   57.8020 O.2     0  <0>0       -0.2913
     11  C14        8.3460   35.7320   57.0010 C.3     0  <0>0        0.0695
     12  C15        8.1830   33.2550   56.7480 C.3     0  <0>0        0.0008
     13  C8        10.8480   34.5250   61.4270 C.ar    0  <0>0        0.1475
     14  N2        10.2360   33.3720   61.6410 N.ar    0  <0>0       -0.2259
     15  C12       10.8370   32.3750   62.2600 C.ar    0  <0>0        0.1072
     16  C11       12.1330   32.5040   62.7210 C.ar    0  <0>0        0.0538
     17  C10       12.8090   33.7010   62.5200 C.ar    0  <0>0        0.0114
     18 Br         12.9790   31.0680   63.6130 Br      0  <0>0       -0.0474
     19  C9        12.1520   34.7270   61.8630 C.ar    0  <0>0        0.0379
@<TRIPOS>BOND
     1    12     2    1
     2    11     2    1
     3    11     9    1
     4     2     1    1
     5     2     3    1
     6    10     9    2
     7     9     5    1
     8     3     4    1
     9     5     4   ar
    10     5     6   ar
    11     4     8   ar
    12     6     7   ar
    13     8     7   ar
    14     8    13    1
    15    13    14   ar
    16    13    19   ar
    17    14    15   ar
    18    19    17   ar
    19    15    16   ar
    20    17    16   ar
    21    16    18    1
