@<TRIPOS>MOLECULE
ZINC13982910_replica-1.pdb
 26 27 0 0 0
SMALL
GASTEIGER

@<TRIPOS>ATOM
      1  C12        0.8050   32.5960   56.4110 C.2     0  <0>0        0.2856
      2  O2         1.8120   31.9270   56.5120 O.2     0  <0>0       -0.2693
      3  N1        -0.1850   32.2020   55.5870 N.am    0  <0>0       -0.2031
      4  H16       -0.9900   32.7370   55.5070 H       0  <0>0        0.1774
      5  C11        0.6620   33.8650   57.2100 C.3     0  <0>0        0.2911
      6  O1         1.2040   34.9590   56.4680 O.3     0  <0>0       -0.4656
      7  C8         2.4920   35.3050   56.7310 C.ar    0  <0>0        0.1393
      8  C7         2.8940   35.5420   58.0380 C.ar    0  <0>0        0.0366
      9  C6         4.2040   35.8940   58.3020 C.ar    0  <0>0       -0.0012
     10  C5         5.1130   36.0100   57.2670 C.ar    0  <0>0       -0.0223
     11  C10        4.7140   35.7750   55.9640 C.ar    0  <0>0       -0.0012
     12  C9         3.4070   35.4170   55.6950 C.ar    0  <0>0        0.0366
     13  C3         6.5400   36.3940   57.5580 C.3     0  <0>0        0.0223
     14  C4         7.3620   35.1340   57.8340 C.3     0  <0>0        0.0047
     15  C2         7.1270   37.1320   56.3520 C.3     0  <0>0        0.0044
     16  C1         8.1730   38.1420   56.8310 C.3     0  <0>0        0.0003
     17  N2        -0.0520   31.0220   54.8440 N.2     0  <0>0       -0.1835
     18  C13       -1.0830   30.2600   54.6450 C.2     0  <0>0        0.0766
     19  C14       -2.4260   30.6460   55.2100 C.3     0  <0>0        0.0537
     20  C15       -0.9420   29.0180   53.8630 C.ar    0  <0>0        0.0150
     21  C20       -1.5850   28.8870   52.6300 C.ar    0  <0>0        0.0009
     22  C19       -1.4480   27.7220   51.9050 C.ar    0  <0>0       -0.0042
     23  C18       -0.6750   26.6840   52.3950 C.ar    0  <0>0       -0.0218
     24  C17       -0.0340   26.8070   53.6150 C.ar    0  <0>0       -0.0042
     25  C21       -0.5300   25.4140   51.5970 C.3     0  <0>0        0.0310
     26  C16       -0.1580   27.9680   54.3500 C.ar    0  <0>0        0.0009
@<TRIPOS>BOND
     1    25    23    1
     2    22    23   ar
     3    22    21   ar
     4    23    24   ar
     5    21    20   ar
     6    24    26   ar
     7    20    26   ar
     8    20    18    1
     9    18    17    2
    10    18    19    1
    11    17     3    1
    12     4     3    1
    13     3     1   am
    14    12    11   ar
    15    12     7   ar
    16    11    10   ar
    17    15    16    1
    18    15    13    1
    19     1     2    2
    20     1     5    1
    21     6     7    1
    22     6     5    1
    23     7     8   ar
    24    10    13    1
    25    10     9   ar
    26    13    14    1
    27     8     9   ar
