@<TRIPOS>MOLECULE
ZINC61849549_replica-1.pdb
 20 21 0 0 0
SMALL
GASTEIGER

@<TRIPOS>ATOM
      1  C8         6.1140   35.6800   57.8590 C.ar    0  <0>0        0.0487
      2  C9         5.2460   36.1570   58.8370 C.ar    0  <0>0        0.0146
      3  C10        3.8850   36.0450   58.6660 C.ar    0  <0>0        0.0039
      4  C11        3.3740   35.4510   57.5080 C.ar    0  <0>0        0.0302
      5  C12        4.2490   34.9730   56.5260 C.ar    0  <0>0        0.0606
      6  C13        5.6110   35.0920   56.7020 C.ar    0  <0>0        0.0260
      7 Cl          3.6210   34.2340   55.0870 Cl      0  <0>0       -0.0821
      8  N1         7.4900   35.7950   58.0350 N.pl3   0  <0>0       -0.3075
      9  C3         8.3130   36.4110   56.9910 C.3     0  <0>0        0.0908
     10  C2         7.8220   37.8360   56.7290 C.3     0  <0>0        0.0214
     11  C1         8.3770   38.7720   57.8050 C.3     0  <0>0        0.0018
     12  C4         8.1140   35.3010   59.2640 C.3     0  <0>0        0.0907
     13  C5         9.5740   35.7570   59.3130 C.3     0  <0>0        0.0198
     14  C7        10.0600   36.4310   60.5980 C.3     0  <0>0        0.0018
     15  C6        10.5150   35.0100   60.2610 C.3     0  <0>0        0.0018
     16  C14        1.9180   35.3300   57.3220 C.2     0  <0>0        0.0789
     17  S1         1.1070   33.9060   57.8180 S.2     0  <0>0       -0.0351
     18  N2         1.2230   36.3400   56.7620 N.am    0  <0>0       -0.3517
     19  H18        1.6910   37.1160   56.4140 H       0  <0>0        0.1428
     20  H19        0.2560   36.2920   56.7050 H       0  <0>0        0.1428
@<TRIPOS>BOND
     1     7     5    1
     2    19    18    1
     3     5     6   ar
     4     5     4   ar
     5     6     1   ar
     6    20    18    1
     7    10     9    1
     8    10    11    1
     9    18    16    1
    10     9     8    1
    11    16     4    1
    12    16    17    2
    13     4     3   ar
    14     1     8    1
    15     1     2   ar
    16     8    12    1
    17     3     2   ar
    18    12    13    1
    19    13    15    1
    20    13    14    1
    21    15    14    1
