@<TRIPOS>MOLECULE
ZINC23446562_replica-1.pdb
 29 32 0 0 0
SMALL
GASTEIGER

@<TRIPOS>ATOM
      1  N2         8.6980   33.9570   59.0440 N.am    0  <0>0       -0.2625
      2  C17        8.0450   32.9390   58.4480 C.2     0  <0>0        0.2497
      3  O2         8.1920   32.7380   57.2590 O.2     0  <0>0       -0.2699
      4  C9         8.5630   34.1690   60.4880 C.3     0  <0>0        0.1942
      5  C8         9.8530   33.8010   61.1730 C.2     0  <0>0        0.2780
      6  N1        10.8800   34.5870   61.2950 N.2     0  <0>0       -0.3666
      7  C6        11.8620   33.9270   61.9660 C.2     0  <0>0        0.1681
      8  C5        11.3580   32.6500   62.2550 C.2     0  <0>0        0.1734
      9  C7        13.1530   34.2690   62.3730 C.2     0  <0>0        0.0272
     10  C4        12.1440   31.7380   62.9420 C.2     0  <0>0        0.0184
     11  O1        10.1070   32.6130   61.7440 O.2     0  <0>0       -0.4270
     12  C3        13.4180   32.0890   63.3390 C.3     0  <0>0        0.0513
     13  C2        13.9190   33.3510   63.0550 C.2     0  <0>0       -0.0368
     14  C1        15.3120   33.7180   63.4950 C.3     0  <0>0        0.0268
     15  C10        9.5430   34.8510   58.2480 C.3     0  <0>0        0.1218
     16  C11        8.9510   36.2350   58.2490 C.ar    0  <0>0        0.0083
     17  C16        8.2640   36.6950   57.1410 C.ar    0  <0>0        0.0553
     18  C15        7.7200   37.9670   57.1420 C.ar    0  <0>0        0.0111
     19 Cl          8.0850   35.6750   55.7470 Cl      0  <0>0       -0.0825
     20  C14        7.8620   38.7780   58.2520 C.ar    0  <0>0        0.0008
     21  C13        8.5490   38.3180   59.3610 C.ar    0  <0>0       -0.0002
     22  C12        9.0890   37.0470   59.3610 C.ar    0  <0>0       -0.0018
     23  C18        7.1520   32.0690   59.2420 C.ar    0  <0>0        0.0558
     24  C23        7.6610   30.9340   59.8760 C.ar    0  <0>0        0.0341
     25  C22        6.8200   30.1250   60.6170 C.ar    0  <0>0        0.1403
     26  C21        5.4760   30.4400   60.7300 C.ar    0  <0>0        0.0296
     27  F1         7.3110   29.0270   61.2310 F       0  <0>0       -0.2042
     28  C20        4.9670   31.5630   60.1030 C.ar    0  <0>0        0.0025
     29  C19        5.7970   32.3810   59.3660 C.ar    0  <0>0        0.0047
@<TRIPOS>BOND
     1    19    17    1
     2    17    18   ar
     3    17    16   ar
     4    18    20   ar
     5     3     2    2
     6    15    16    1
     7    15     1    1
     8    16    22   ar
     9    20    21   ar
    10     2     1   am
    11     2    23    1
    12     1     4    1
    13    23    29   ar
    14    23    24   ar
    15    22    21   ar
    16    29    28   ar
    17    24    25   ar
    18    28    26   ar
    19     4     5    1
    20    25    26   ar
    21    25    27    1
    22     5     6    2
    23     5    11    1
    24     6     7    2
    25    11     8    1
    26     7     8    1
    27     7     9    1
    28     8    10    2
    29     9    13    2
    30    10    12    1
    31    13    12    1
    32    13    14    1
