@<TRIPOS>MOLECULE
ZINC31774107_replica-1.pdb
 25 27 0 0 0
SMALL
GASTEIGER

@<TRIPOS>ATOM
      1  C1         8.6420   31.8430   59.3990 C.3     0  <0>0        0.0262
      2  C2         8.5620   33.2210   60.0580 C.3     0  <0>0        0.0945
      3  C3         9.7770   33.4350   60.9240 C.ar    0  <0>0       -0.0013
      4  C8        10.1700   32.4530   61.8160 C.ar    0  <0>0        0.0374
      5  C7        11.2860   32.6530   62.6100 C.ar    0  <0>0        0.1719
      6  C6        12.0070   33.8350   62.5100 C.ar    0  <0>0        0.1722
      7  O1        11.6840   31.6930   63.4940 O.3     0  <0>0       -0.4723
      8  C5        11.6110   34.8160   61.6170 C.ar    0  <0>0        0.0398
      9  O2        13.1060   34.0220   63.2980 O.3     0  <0>0       -0.4723
     10  C4        10.4980   34.6100   60.8210 C.ar    0  <0>0        0.0006
     11  C11       14.2310   33.1890   63.0100 C.3     0  <0>0        0.2094
     12  C10       14.0980   31.8450   63.7080 C.3     0  <0>0        0.0946
     13  C9        12.9180   31.0370   63.1910 C.3     0  <0>0        0.2094
     14  N1         8.5130   34.2560   59.0220 N.am    0  <0>0       -0.2987
     15  C12        7.5020   35.1460   59.0060 C.2     0  <0>0        0.2465
     16  O3         6.6300   35.0910   59.8520 O.2     0  <0>0       -0.2701
     17  H14        9.3020   34.3060   58.2560 H       0  <0>0        0.1500
     18  C13        7.4520   36.1890   57.9610 C.ar    0  <0>0        0.0597
     19  C18        8.0420   37.4360   58.1860 C.ar    0  <0>0        0.0412
     20  C17        7.9960   38.4040   57.2040 C.ar    0  <0>0        0.0365
     21 Br          8.9040   37.7940   59.8300 Br      0  <0>0       -0.0488
     22  C16        7.3590   38.1450   56.0010 C.ar    0  <0>0        0.1406
     23  C15        6.7690   36.9100   55.7750 C.ar    0  <0>0        0.0298
     24  F1         7.3140   39.0980   55.0450 F       0  <0>0       -0.2042
     25  C14        6.8120   35.9340   56.7450 C.ar    0  <0>0        0.0073
@<TRIPOS>BOND
     1    24    22    1
     2    23    22   ar
     3    23    25   ar
     4    22    20   ar
     5    25    18   ar
     6    20    19   ar
     7    18    19   ar
     8    18    15    1
     9    19    21    1
    10    17    14    1
    11    15    14   am
    12    15    16    2
    13    14     2    1
    14     1     2    1
    15     2     3    1
    16    10     3   ar
    17    10     8   ar
    18     3     4   ar
    19     8     6   ar
    20     4     5   ar
    21     6     5   ar
    22     6     9    1
    23     5     7    1
    24    11     9    1
    25    11    12    1
    26    13     7    1
    27    13    12    1
