@<TRIPOS>MOLECULE
ZINC05403125_replica-1.pdb
 32 36 0 0 0
SMALL
GASTEIGER

@<TRIPOS>ATOM
      1  C11       -0.9750   30.3860   54.8770 C.ar    0  <0>0        0.1023
      2  C12        0.1910   31.1250   55.1560 C.ar    0  <0>0        0.0439
      3  C13       -0.1670   32.0050   56.1600 C.ar    0  <0>0        0.1303
      4  N1        -1.4880   31.7730   56.4260 N.ar    0  <0>0       -0.2713
      5  H1        -2.0310   32.2630   57.1080 H       0  <0>0        0.1891
      6  N2        -1.9280   30.8330   55.6700 N.ar    0  <0>0       -0.1725
      7  C14        0.7010   33.0000   56.8110 C.2     0  <0>0        0.2816
      8  O1         0.4150   33.4260   57.9150 O.2     0  <0>0       -0.2668
      9  N3         1.8110   33.4380   56.1860 N.am    0  <0>0       -0.2011
     10  H8         2.0380   33.0980   55.3060 H       0  <0>0        0.1776
     11  N4         2.6370   34.3840   56.8060 N.2     0  <0>0       -0.1773
     12  C15        3.9230   34.2100   56.8240 C.2     0  <0>0        0.1176
     13  C16        4.7930   35.2060   57.4770 C.ar    0  <0>0        0.0216
     14  C21        5.8770   35.7510   56.7860 C.ar    0  <0>0        0.0138
     15  C20        6.6860   36.6830   57.4020 C.ar    0  <0>0        0.0682
     16  C19        6.4290   37.0740   58.7070 C.ar    0  <0>0        0.0682
     17 Cl          8.0350   37.3620   56.5460 Cl      0  <0>0       -0.0814
     18  C18        5.3520   36.5400   59.3950 C.ar    0  <0>0        0.0123
     19 Cl          7.4550   38.2410   59.4790 Cl      0  <0>0       -0.0814
     20  C17        4.5350   35.6080   58.7910 C.ar    0  <0>0        0.0025
     21  C8        -1.1070   29.3080   53.8700 C.ar    0  <0>0        0.0194
     22  C7        -1.8100   29.5180   52.6930 C.ar    0  <0>0        0.0016
     23  C6        -1.9490   28.5230   51.7270 C.ar    0  <0>0        0.0000
     24  C5        -1.3920   27.2940   51.9150 C.ar    0  <0>0        0.0000
     25  C4        -0.6830   27.0630   53.0890 C.ar    0  <0>0        0.0000
     26  C22       -1.3460   26.0220   51.1030 C.2     0  <0>0        0.0000
     27  C3        -0.1470   25.7830   53.2000 C.ar    0  <0>0        0.0000
     28  C9        -0.5140   28.0420   54.0840 C.ar    0  <0>0        0.0015
     29  C2         0.5630   25.4810   54.3220 C.ar    0  <0>0        0.0000
     30  C23       -0.5250   25.0260   51.9510 C.2     0  <0>0        0.0000
     31  C1         0.7370   26.4370   55.3240 C.ar    0  <0>0        0.0000
     32  C10        0.2150   27.6960   55.2300 C.ar    0  <0>0        0.0000
@<TRIPOS>BOND
     1    26    24    1
     2    26    30    2
     3    23    24   ar
     4    23    22   ar
     5    24    25   ar
     6    30    27    1
     7    22    21   ar
     8    25    27   ar
     9    25    28   ar
    10    27    29   ar
    11    21    28   ar
    12    21     1    1
    13    28    32   ar
    14    29    31   ar
    15     1     2   ar
    16     1     6   ar
    17     2     3   ar
    18    32    31   ar
    19    10     9    1
    20     6     4   ar
    21     3     4   ar
    22     3     7    1
    23     9    11    1
    24     9     7   am
    25     4     5    1
    26    17    15    1
    27    14    15   ar
    28    14    13   ar
    29    11    12    2
    30     7     8    2
    31    12    13    1
    32    15    16   ar
    33    13    20   ar
    34    16    18   ar
    35    16    19    1
    36    20    18   ar
