@<TRIPOS>MOLECULE
ZINC11888664_replica-1.pdb
 24 25 0 0 0
SMALL
GASTEIGER

@<TRIPOS>ATOM
      1  C11        8.7870   36.8400   58.6180 C.3     0  <0>0        0.2525
      2  O1         9.1640   37.2840   59.9230 O.3     0  <0>0       -0.4714
      3  C4        10.0100   36.4850   60.6250 C.ar    0  <0>0        0.1384
      4  C3        10.5390   36.9210   61.8310 C.ar    0  <0>0        0.0323
      5  C2        11.3980   36.1060   62.5420 C.ar    0  <0>0       -0.0228
      6  C1        11.9720   36.5800   63.8520 C.3     0  <0>0        0.0308
      7  C7        11.7360   34.8590   62.0520 C.ar    0  <0>0       -0.0262
      8  C6        11.2060   34.4190   60.8520 C.ar    0  <0>0       -0.0015
      9  C5        10.3470   35.2300   60.1370 C.ar    0  <0>0        0.0366
     10  C8        12.6780   33.9750   62.8270 C.3     0  <0>0        0.0220
     11  C9        12.1120   32.5550   62.8870 C.3     0  <0>0        0.0047
     12  C10       14.0430   33.9520   62.1340 C.3     0  <0>0        0.0047
     13  C12        7.2910   37.0870   58.4090 C.3     0  <0>0        0.2525
     14  O2         6.7470   36.0520   57.5870 O.3     0  <0>0       -0.4714
     15  C13        5.3960   36.0090   57.4650 C.ar    0  <0>0        0.1387
     16  C18        4.6010   35.8800   58.5970 C.ar    0  <0>0        0.0370
     17  C17        3.2300   35.8410   58.4780 C.ar    0  <0>0        0.0048
     18  C16        2.6380   35.9180   57.2150 C.ar    0  <0>0        0.0226
     19  C15        3.4410   36.0420   56.0790 C.ar    0  <0>0        0.0048
     20  C14        4.8110   36.0850   56.2070 C.ar    0  <0>0        0.0370
     21  C19        1.1700   35.8720   57.0830 C.2     0  <0>0        0.1398
     22  N1         0.5650   34.7310   56.9810 N.2     0  <0>0       -0.0847
     23  O3         1.3180   33.5340   56.9210 O.2     0  <0>0       -0.4087
     24  H23        1.2200   33.0480   56.0910 H       0  <0>0        0.3278
@<TRIPOS>BOND
     1    19    20   ar
     2    19    18   ar
     3    24    23    1
     4    20    15   ar
     5    23    22    1
     6    22    21    2
     7    21    18    1
     8    18    17   ar
     9    15    14    1
    10    15    16   ar
    11    14    13    1
    12    13     1    1
    13    17    16   ar
    14     1     2    1
    15     2     3    1
    16     9     3   ar
    17     9     8   ar
    18     3     4   ar
    19     8     7   ar
    20     4     5   ar
    21     7     5   ar
    22     7    10    1
    23    12    10    1
    24     5     6    1
    25    10    11    1
