@<TRIPOS>MOLECULE
ZINC49860165_replica-1.pdb
 19 20 0 0 0
SMALL
GASTEIGER

@<TRIPOS>ATOM
      1  C9        -0.3550   29.6130   55.5140 C.2     0  <0>0        0.1364
      2  C10       -1.1720   29.5400   56.6430 C.2     0  <0>0        0.0063
      3  C11       -0.9670   30.4200   57.6870 C.2     0  <0>0        0.0019
      4  C12        0.0660   31.3600   57.5750 C.3     0  <0>0        0.1981
      5  C13        0.8500   31.3750   56.4060 C.1     0  <0>0        0.0346
      6  N1         0.6200   30.5090   55.4340 N.2     0  <0>0       -0.3648
      7  S1         2.1530   32.5500   56.2430 S.2     0  <0>0        0.0206
      8  C14        0.3170   32.2930   58.6320 C.1     0  <0>0        0.0919
      9  N2         0.5170   33.0330   59.4700 N.1     0  <0>0       -0.1945
     10  C15       -2.2720   28.5130   56.7200 C.3     0  <0>0        0.0335
     11  C5        -0.5750   28.6700   54.3920 C.ar    0  <0>0        0.0222
     12  C4        -1.3790   29.0390   53.3150 C.ar    0  <0>0       -0.0200
     13  C3        -1.5800   28.1570   52.2720 C.ar    0  <0>0       -0.0085
     14  C16       -2.0280   30.3990   53.2880 C.3     0  <0>0        0.0311
     15  C2        -0.9840   26.9080   52.2950 C.ar    0  <0>0       -0.0225
     16  C1        -1.2080   25.9500   51.1540 C.3     0  <0>0        0.0310
     17  C7        -0.1900   26.5340   53.3640 C.ar    0  <0>0       -0.0085
     18  C6         0.0220   27.4100   54.4100 C.ar    0  <0>0       -0.0200
     19  C8         0.8930   27.0030   55.5700 C.3     0  <0>0        0.0311
@<TRIPOS>BOND
     1    16    15    1
     2    13    15   ar
     3    13    12   ar
     4    15    17   ar
     5    14    12    1
     6    12    11   ar
     7    17    18   ar
     8    11    18   ar
     9    11     1    1
    10    18    19    1
    11     6     1    2
    12     6     5    2
    13     1     2    1
    14     7     5    2
    15     5     4    1
    16     2    10    1
    17     2     3    2
    18     4     3    1
    19     4     8    1
    20     8     9    3
