@<TRIPOS>MOLECULE
ZINC20594846_replica-1.pdb
 21 22 0 0 0
SMALL
GASTEIGER

@<TRIPOS>ATOM
      1  C7        -0.8920   29.3880   53.8150 C.3     0  <0>0        0.1173
      2  C5        -0.9370   28.1280   52.9890 C.ar    0  <0>0        0.0316
      3  C4        -0.1980   27.0200   53.3730 C.ar    0  <0>0        0.1418
      4  C3        -0.2420   25.8620   52.6090 C.ar    0  <0>0        0.0368
      5  C2        -1.0210   25.8160   51.4710 C.ar    0  <0>0        0.0031
      6  C1        -1.7570   26.9230   51.0900 C.ar    0  <0>0       -0.0001
      7  C6        -1.7190   28.0760   51.8510 C.ar    0  <0>0        0.0004
      8  O1         0.5680   27.0680   54.4950 O.3     0  <0>0       -0.4239
      9  C14        0.2510   26.1420   55.5360 C.3     0  <0>0        0.5086
     10  F2         0.8920   24.9240   55.2870 F       0  <0>0       -0.1550
     11  F3         0.6830   26.6540   56.7640 F       0  <0>0       -0.1550
     12  N1        -1.7050   29.2120   55.0200 N.pl3   0  <0>0       -0.3283
     13  H7        -2.7470   28.8720   54.9350 H       0  <0>0        0.1471
     14  C8        -1.1560   29.4770   56.2800 C.ar    0  <0>0        0.0557
     15  C13       -1.7150   28.9060   57.4170 C.ar    0  <0>0        0.0730
     16  C12       -1.1710   29.1690   58.6590 C.ar    0  <0>0        0.0423
     17 Cl         -3.0940   27.8610   57.2760 Cl      0  <0>0       -0.0809
     18  C11       -0.0700   30.0030   58.7720 C.ar    0  <0>0        0.1411
     19  C10        0.4910   30.5690   57.6390 C.ar    0  <0>0        0.0310
     20  F1         0.4610   30.2590   59.9870 F       0  <0>0       -0.2041
     21  C9        -0.0530   30.3130   56.3960 C.ar    0  <0>0        0.0175
@<TRIPOS>BOND
     1     6     5   ar
     2     6     7   ar
     3     5     4   ar
     4     7     2   ar
     5     4     3   ar
     6     2     3   ar
     7     2     1    1
     8     3     8    1
     9     1    12    1
    10     8     9    1
    11    13    12    1
    12    12    14    1
    13    10     9    1
    14     9    11    1
    15    14    21   ar
    16    14    15   ar
    17    21    19   ar
    18    17    15    1
    19    15    16   ar
    20    19    18   ar
    21    16    18   ar
    22    18    20    1
