@<TRIPOS>MOLECULE
ZINC21255147_replica-1.pdb
 34 37 0 0 0
SMALL
GASTEIGER

@<TRIPOS>ATOM
      1  C11        1.6810   32.5880   58.9590 C.3     0  <0>0        0.0356
      2  C12        3.1300   32.1930   58.6670 C.3     0  <0>0        0.0458
      3  C13        4.0460   33.3400   59.0150 C.2     0  <0>0        0.0268
      4  C14        3.6260   34.6180   58.9070 C.2     0  <0>0        0.0261
      5  C15        4.5650   35.7500   59.2500 C.3     0  <0>0        0.0575
      6  C16        5.4650   35.3300   60.4130 C.3     0  <0>0        0.0942
      7  C17        6.0400   33.9680   60.1240 C.2     0  <0>0        0.2265
      8  O1         7.1560   33.6880   60.5080 O.2     0  <0>0       -0.2748
      9  N1         5.3200   33.0610   59.4410 N.am    0  <0>0       -0.2875
     10  C25        2.3240   34.9260   58.4810 C.2     0  <0>0        0.1706
     11  O4         1.9850   36.0900   58.3840 O.2     0  <0>0       -0.2916
     12  C26        1.3410   33.8390   58.1410 C.3     0  <0>0        0.0736
     13  H20        5.7690   32.0800   59.2260 H       0  <0>0        0.1545
     14  C18        5.4150   36.0790   58.0500 C.ar    0  <0>0       -0.0141
     15  C23        6.4500   36.9880   58.1660 C.ar    0  <0>0        0.0060
     16  C22        7.2320   37.2940   57.0670 C.ar    0  <0>0        0.0709
     17  C21        6.9790   36.6890   55.8460 C.ar    0  <0>0        0.1740
     18 Br          8.6470   38.5380   57.2290 Br      0  <0>0       -0.0458
     19  C20        5.9360   35.7740   55.7300 C.ar    0  <0>0        0.1723
     20  C19        5.1600   35.4690   56.8360 C.ar    0  <0>0        0.0361
     21  O2         7.7460   36.9890   54.7640 O.3     0  <0>0       -0.5025
     22  H23        7.2700   37.2330   53.8030 H       0  <0>0        0.2923
     23  O3         5.6830   35.1780   54.5340 O.3     0  <0>0       -0.4684
     24  C24        4.4060   34.5570   54.3760 C.3     0  <0>0        0.2526
     25  C8         0.7610   31.4610   58.5650 C.ar    0  <0>0       -0.0217
     26  C7         0.2910   31.3730   57.2680 C.ar    0  <0>0       -0.0046
     27  C6        -0.5560   30.3430   56.9080 C.ar    0  <0>0       -0.0046
     28  C5        -0.9250   29.3920   57.8420 C.ar    0  <0>0       -0.0228
     29  C10       -0.4510   29.4770   59.1370 C.ar    0  <0>0       -0.0046
     30  C9         0.3920   30.5110   59.4990 C.ar    0  <0>0       -0.0046
     31  C2        -1.8440   28.2650   57.4480 C.3     0  <0>0        0.0189
     32  C1        -2.9740   28.8110   56.5720 C.3     0  <0>0        0.0044
     33  C3        -1.0550   27.2130   56.6660 C.3     0  <0>0        0.0044
     34  C4        -2.4380   27.6280   58.7060 C.3     0  <0>0        0.0044
@<TRIPOS>BOND
     1    22    21    1
     2    24    23    1
     3    23    19    1
     4    21    17    1
     5    19    17   ar
     6    19    20   ar
     7    17    16   ar
     8    32    31    1
     9    33    31    1
    10    20    14   ar
    11    27    26   ar
    12    27    28   ar
    13    16    18    1
    14    16    15   ar
    15    26    25   ar
    16    31    28    1
    17    31    34    1
    18    28    29   ar
    19    14    15   ar
    20    14     5    1
    21    12    10    1
    22    12     1    1
    23    11    10    2
    24    10     4    1
    25    25     1    1
    26    25    30   ar
    27     2     1    1
    28     2     3    1
    29     4     3    2
    30     4     5    1
    31     3     9    1
    32    29    30   ar
    33    13     9    1
    34     5     6    1
    35     9     7   am
    36     7     6    1
    37     7     8    2
