@<TRIPOS>MOLECULE
ZINC04026274_replica-1.pdb
 26 29 0 0 0
SMALL
GASTEIGER

@<TRIPOS>ATOM
      1  C3         2.9900   35.3530   58.7880 C.3     0  <0>0        0.0576
      2  C4         2.9530   34.2790   59.8910 C.3     0  <0>0        0.0073
      3  C5         4.4240   33.9190   60.2050 C.3     0  <0>0        0.0005
      4  C6         5.1740   34.3220   58.9210 C.3     0  <0>0        0.0007
      5  C7         4.4910   35.6360   58.5050 C.3     0  <0>0        0.0065
      6  C8         4.9060   36.7750   59.4400 C.3     0  <0>0        0.0004
      7  C9         6.4250   36.8990   59.4900 C.3     0  <0>0        0.0003
      8  C10        7.0100   35.6050   60.0700 C.3     0  <0>0        0.0038
      9  C11        6.6630   34.4490   59.1360 C.3     0  <0>0        0.0046
     10  C12        7.2110   33.1520   59.7410 C.3     0  <0>0        0.0254
     11  C13        8.6840   33.3020   59.9860 C.2     0  <0>0       -0.0345
     12  C14        9.2520   34.4520   60.1970 C.2     0  <0>0       -0.0455
     13  C15        8.5160   35.7590   60.2100 C.3     0  <0>0        0.0151
     14  C16        8.8500   36.5160   61.4990 C.3     0  <0>0        0.0074
     15  C17       10.3690   36.6530   61.6260 C.3     0  <0>0        0.0443
     16  C18       11.0050   35.2680   61.7390 C.3     0  <0>0        0.1728
     17  C19       10.7500   34.4800   60.4490 C.3     0  <0>0        0.0653
     18  C22        9.0080   36.5950   59.0280 C.3     0  <0>0        0.0040
     19  C23        4.7440   35.9720   57.0340 C.3     0  <0>0        0.0004
     20  O2        12.4360   35.4070   61.9450 O.3     0  <0>0       -0.4519
     21  C20       13.1090   34.3060   62.3120 C.2     0  <0>0        0.3174
     22  O3        14.2560   34.1540   61.9610 O.2     0  <0>0       -0.2501
     23  C21       12.4380   33.2600   63.1640 C.3     0  <0>0        0.1212
     24  C2         2.3150   34.8400   57.5420 C.2     0  <0>0        0.1507
     25  C1         1.2720   35.6790   56.8510 C.3     0  <0>0        0.0722
     26  O1         2.6100   33.7570   57.0990 O.2     0  <0>0       -0.2961
@<TRIPOS>BOND
     1    25    24    1
     2    19     5    1
     3    26    24    2
     4    24     1    1
     5     5     1    1
     6     5     4    1
     7     5     6    1
     8     1     2    1
     9     4     9    1
    10     4     3    1
    11    18    13    1
    12     9    10    1
    13     9     8    1
    14     6     7    1
    15     7     8    1
    16    10    11    1
    17     2     3    1
    18    11    12    2
    19     8    13    1
    20    12    13    1
    21    12    17    1
    22    13    14    1
    23    17    16    1
    24    14    15    1
    25    15    16    1
    26    16    20    1
    27    20    21    1
    28    22    21    2
    29    21    23    1
