@<TRIPOS>MOLECULE
ZINC04417039_replica-1.pdb
 22 23 0 0 0
SMALL
GASTEIGER

@<TRIPOS>ATOM
      1  O2        -0.4390   29.6600   55.7110 O.3     0  <0>0       -0.4476
      2  C6        -1.3520   28.7800   55.0530 C.3     0  <0>0        0.1947
      3  C2        -0.6090   27.8580   54.1200 C.2     0  <0>0       -0.0050
      4  C1         0.4500   26.8730   54.5470 C.3     0  <0>0        0.0298
      5  C3        -1.0180   28.0320   52.8720 C.2     0  <0>0        0.0125
      6  C4        -2.0520   29.0560   52.7660 C.2     0  <0>0        0.1729
      7  O1        -2.6030   29.4160   51.7470 O.2     0  <0>0       -0.2915
      8  C5        -2.3130   29.5850   54.1600 C.3     0  <0>0        0.1166
      9  C17       -0.4760   27.2620   51.6950 C.3     0  <0>0        0.0547
     10  C18       -1.2660   25.9910   51.5200 C.2     0  <0>0       -0.0213
     11  C19       -0.6760   24.8290   51.6560 C.2     0  <0>0       -0.0046
     12  C7        -0.7720   30.0730   56.9440 C.2     0  <0>0        0.3170
     13  O3        -0.6030   31.2270   57.2610 O.2     0  <0>0       -0.2501
     14  C8        -1.3560   29.0980   57.9340 C.3     0  <0>0        0.1033
     15  C10       -0.4300   28.0130   58.4870 C.3     0  <0>0        0.0146
     16  C9        -0.8620   29.1770   59.3800 C.3     0  <0>0        0.0325
     17  C11       -1.0410   26.6400   58.7710 C.3     0  <0>0        0.0009
     18  C12        1.0180   28.0000   57.9920 C.3     0  <0>0        0.0009
     19  C13        0.1710   30.2270   59.7060 C.2     0  <0>0       -0.0344
     20  C14        0.2320   30.7340   60.9120 C.2     0  <0>0       -0.0478
     21  C15       -0.7320   30.2690   61.9730 C.3     0  <0>0        0.0260
     22  C16        1.2640   31.7820   61.2370 C.3     0  <0>0        0.0260
@<TRIPOS>BOND
     1    10    11    2
     2    10     9    1
     3     9     5    1
     4     7     6    2
     5     6     5    1
     6     6     8    1
     7     5     3    2
     8     3     4    1
     9     3     2    1
    10     8     2    1
    11     2     1    1
    12     1    12    1
    13    12    13    2
    14    12    14    1
    15    14    15    1
    16    14    16    1
    17    18    15    1
    18    15    17    1
    19    15    16    1
    20    16    19    1
    21    19    20    2
    22    20    22    1
    23    20    21    1
