@<TRIPOS>MOLECULE
ZINC02396604_replica-1.pdb
 30 34 0 0 0
SMALL
GASTEIGER

@<TRIPOS>ATOM
      1  N1        -0.5620   29.1990   57.6520 N.am    0  <0>0       -0.2054
      2  C7         0.0510   29.8990   58.6360 C.2     0  <0>0        0.2552
      3  O1         0.1830   29.4330   59.7530 O.2     0  <0>0       -0.2726
      4  C8         0.5540   31.2360   58.3040 C.3     0  <0>0        0.2074
      5  C9         1.2020   32.0410   59.2380 C.2     0  <0>0       -0.0024
      6  C10        1.6410   33.2960   58.8390 C.2     0  <0>0        0.0014
      7  C11        1.4320   33.7120   57.5380 C.2     0  <0>0        0.1168
      8  N2         0.8090   32.9300   56.6660 N.2     0  <0>0       -0.3475
      9  C12        0.3640   31.7220   56.9890 C.1     0  <0>0        0.1271
     10  N3        -0.2660   30.9390   56.0920 N.2     0  <0>0       -0.3206
     11  C13       -0.7040   29.7440   56.4060 C.2     0  <0>0        0.2323
     12  C21        1.9020   35.0560   57.0390 C.3     0  <0>0        0.0596
     13  C22        2.1850   35.9940   58.2100 C.3     0  <0>0        0.0078
     14  C23        3.1150   35.2750   59.1950 C.3     0  <0>0        0.0052
     15  C24        2.3270   34.1540   59.8690 C.3     0  <0>0        0.0284
     16  S1        -1.5150   28.7940   55.1630 S.3     0  <0>0       -0.0606
     17  C14       -0.0950   28.3420   54.1370 C.3     0  <0>0        0.0930
     18  C15       -0.5360   27.3790   53.0650 C.ar    0  <0>0       -0.0003
     19  C20       -0.1980   26.0410   53.1550 C.ar    0  <0>0        0.0545
     20  C19       -0.6040   25.1570   52.1700 C.ar    0  <0>0        0.0111
     21 Cl          0.7350   25.4690   54.5020 Cl      0  <0>0       -0.0825
     22  C18       -1.3470   25.6130   51.0970 C.ar    0  <0>0        0.0008
     23  C17       -1.6850   26.9500   51.0090 C.ar    0  <0>0       -0.0002
     24  C16       -1.2840   27.8320   51.9940 C.ar    0  <0>0       -0.0026
     25  C4        -1.0570   27.9150   57.9120 C.ar    0  <0>0        0.0609
     26  C3        -2.3610   27.7490   58.3590 C.ar    0  <0>0        0.0153
     27  C2        -2.8450   26.4820   58.6160 C.ar    0  <0>0        0.0013
     28  C1        -2.0330   25.3780   58.4280 C.ar    0  <0>0        0.0001
     29  C6        -0.7350   25.5400   57.9820 C.ar    0  <0>0        0.0013
     30  C5        -0.2440   26.8050   57.7240 C.ar    0  <0>0        0.0153
@<TRIPOS>BOND
     1    23    22   ar
     2    23    24   ar
     3    22    20   ar
     4    24    18   ar
     5    20    19   ar
     6    18    19   ar
     7    18    17    1
     8    19    21    1
     9    17    16    1
    10    16    11    1
    11    10    11    2
    12    10     9    2
    13    11     1    1
    14     8     9    2
    15     8     7    2
    16     9     4    1
    17    12     7    1
    18    12    13    1
    19     7     6    1
    20     1    25    1
    21     1     2   am
    22    30    25   ar
    23    30    29   ar
    24    25    26   ar
    25    29    28   ar
    26    13    14    1
    27     4     2    1
    28     4     5    1
    29    26    27   ar
    30    28    27   ar
    31     2     3    2
    32     6     5    2
    33     6    15    1
    34    14    15    1
