@<TRIPOS>MOLECULE
ZINC40320375_replica-1.pdb
 23 23 0 0 0
SMALL
GASTEIGER

@<TRIPOS>ATOM
      1  N1         8.9880   35.0360   59.8410 N.am    0  <0>0       -0.2761
      2  C11        8.2180   34.2100   59.1050 C.2     0  <0>0        0.2491
      3  O1         8.6980   33.2060   58.6150 O.2     0  <0>0       -0.2699
      4  C12        6.7890   34.5240   58.8940 C.ar    0  <0>0        0.0548
      5  C17        5.8380   34.1290   59.8350 C.ar    0  <0>0        0.0191
      6  C16        4.5010   34.4320   59.6310 C.ar    0  <0>0        0.0479
      7  C15        4.1100   35.1190   58.4870 C.ar    0  <0>0        0.0474
      8  C14        5.0530   35.5070   57.5520 C.ar    0  <0>0        0.0081
      9 Br          2.2840   35.5260   58.2090 Br      0  <0>0       -0.0477
     10  C13        6.3860   35.2140   57.7480 C.ar    0  <0>0        0.0051
     11  N2         3.5450   34.0420   60.5740 N.pl3   0  <0>0       -0.3566
     12  H26        3.7830   33.9930   61.5140 H       0  <0>0        0.1424
     13  H27        2.6450   33.8190   60.2890 H       0  <0>0        0.1424
     14  C5        10.4220   34.7720   59.9770 C.3     0  <0>0        0.0937
     15  C4        10.7040   34.1800   61.3590 C.3     0  <0>0        0.0215
     16  C2        11.9910   34.7860   61.9220 C.3     0  <0>0        0.0017
     17  C1        11.6760   36.1340   62.5750 C.3     0  <0>0        0.0001
     18  C3        12.5860   33.8410   62.9670 C.3     0  <0>0        0.0001
     19  C6         8.3910   36.1970   60.5040 C.3     0  <0>0        0.0937
     20  C7         9.1730   37.4570   60.1300 C.3     0  <0>0        0.0215
     21  C8         8.2690   38.4010   59.3350 C.3     0  <0>0        0.0017
     22  C9         8.4860   38.1750   57.8370 C.3     0  <0>0        0.0001
     23  C10        6.8060   38.1220   59.6860 C.3     0  <0>0        0.0001
@<TRIPOS>BOND
     1     8    10   ar
     2     8     7   ar
     3    10     4   ar
     4    22    21    1
     5     9     7    1
     6     7     6   ar
     7     3     2    2
     8     4     2    1
     9     4     5   ar
    10     2     1   am
    11    21    23    1
    12    21    20    1
    13     6     5   ar
    14     6    11    1
    15     1    14    1
    16     1    19    1
    17    14    15    1
    18    20    19    1
    19    13    11    1
    20    11    12    1
    21    15    16    1
    22    16    17    1
    23    16    18    1
