@<TRIPOS>MOLECULE
ZINC33557139_replica-1.pdb
 22 24 0 0 0
SMALL
GASTEIGER

@<TRIPOS>ATOM
      1  C1         9.9630   36.6530   60.8490 C.ar    0  <0>0        0.0406
      2  C2        10.7800   36.1090   61.8440 C.ar    0  <0>0        0.0406
      3  C3        11.2130   34.8960   61.3890 C.ar    0  <0>0        0.1454
      4  O1        10.6960   34.6810   60.1660 O.2     0  <0>0       -0.4535
      5  C4         9.9310   35.7360   59.8140 C.ar    0  <0>0        0.1460
      6  C5         9.2220   35.8790   58.6010 C.2     0  <0>0        0.0487
      7  C6         7.9250   35.4630   58.5170 C.2     0  <0>0        0.0903
      8  S1         6.7390   35.6980   57.2000 S.3     0  <0>0       -0.0253
      9  C7         7.1420   34.7290   59.4590 C.2     0  <0>0        0.2584
     10  C8         5.3690   34.8370   57.9570 C.2     0  <0>0        0.2832
     11  N1         5.8920   34.4440   59.1410 N.am    0  <0>0       -0.2425
     12  O3         4.2480   34.6550   57.5220 O.2     0  <0>0       -0.2622
     13  H4         5.3410   33.9460   59.7650 H       0  <0>0        0.1587
     14  O2         7.6140   34.3750   60.5250 O.2     0  <0>0       -0.2692
     15  C9        12.1020   33.9720   62.1200 C.ar    0  <0>0        0.0362
     16  C14       13.4390   34.3140   62.3430 C.ar    0  <0>0        0.0145
     17  C13       14.2640   33.4480   63.0320 C.ar    0  <0>0        0.0586
     18  C12       13.7740   32.2370   63.4910 C.ar    0  <0>0        0.0228
     19 Cl         15.9220   33.8760   63.3180 Cl      0  <0>0       -0.0822
     20  C11       12.4520   31.8890   63.2670 C.ar    0  <0>0        0.0586
     21  C10       11.6140   32.7480   62.5850 C.ar    0  <0>0        0.0145
     22 Cl         11.8480   30.3680   63.8460 Cl      0  <0>0       -0.0822
@<TRIPOS>BOND
     1     8    10    1
     2     8     7    1
     3    12    10    2
     4    10    11   am
     5     7     6    2
     6     7     9    1
     7     6     5    1
     8    11     9   am
     9    11    13    1
    10     9    14    2
    11     5     4   ar
    12     5     1   ar
    13     4     3   ar
    14     1     2   ar
    15     3     2   ar
    16     3    15    1
    17    15    16   ar
    18    15    21   ar
    19    16    17   ar
    20    21    20   ar
    21    17    19    1
    22    17    18   ar
    23    20    18   ar
    24    20    22    1
