@<TRIPOS>MOLECULE
ZINC22333014_replica-1.pdb
 25 26 0 0 0
SMALL
GASTEIGER

@<TRIPOS>ATOM
      1  C8         7.2400   37.2330   57.3610 C.ar    0  <0>0        0.1760
      2  C9         7.9380   36.2470   58.0910 C.ar    0  <0>0        0.0672
      3  C10        8.7870   36.8800   58.9430 C.ar    0  <0>0        0.1770
      4  O2         8.6400   38.2070   58.7670 O.2     0  <0>0       -0.3533
      5  N2         7.6640   38.4080   57.7610 N.ar    0  <0>0       -0.0723
      6  C7         6.2130   36.9840   56.3210 C.2     0  <0>0        0.2669
      7  N1         5.3790   35.9310   56.4350 N.am    0  <0>0       -0.3012
      8  H14        5.4500   35.3370   57.1990 H       0  <0>0        0.1497
      9  O1         6.1230   37.7290   55.3660 O.2     0  <0>0       -0.2684
     10  C2         4.3640   35.6850   55.4080 C.3     0  <0>0        0.0720
     11  C1         4.7780   34.4780   54.5630 C.3     0  <0>0        0.0213
     12  C3         3.0190   35.4010   56.0780 C.3     0  <0>0        0.0196
     13  C4         3.2440   35.0540   57.5500 C.3     0  <0>0        0.0016
     14  C5         2.3950   35.9750   58.4280 C.3     0  <0>0        0.0001
     15  C6         2.8410   33.5980   57.7980 C.3     0  <0>0        0.0001
     16  C11        9.7110   36.2270   59.8970 C.ar    0  <0>0        0.0372
     17  C16       10.1840   34.9380   59.6440 C.ar    0  <0>0        0.0028
     18  C15       11.0490   34.3380   60.5340 C.ar    0  <0>0       -0.0042
     19  C14       11.4390   35.0050   61.6820 C.ar    0  <0>0       -0.0228
     20  C13       10.9690   36.2800   61.9420 C.ar    0  <0>0       -0.0042
     21  C12       10.1080   36.8950   61.0560 C.ar    0  <0>0        0.0028
     22  C17       12.3790   34.3410   62.6540 C.3     0  <0>0        0.0189
     23  C18       11.8260   32.9680   63.0420 C.3     0  <0>0        0.0044
     24  C19       13.7520   34.1700   61.9990 C.3     0  <0>0        0.0044
     25  C20       12.5160   35.2080   63.9060 C.3     0  <0>0        0.0044
@<TRIPOS>BOND
     1    11    10    1
     2     9     6    2
     3    10    12    1
     4    10     7    1
     5    12    13    1
     6     6     7   am
     7     6     1    1
     8     7     8    1
     9     1     5   ar
    10     1     2   ar
    11    13    15    1
    12    13    14    1
    13     5     4   ar
    14     2     3   ar
    15     4     3   ar
    16     3    16    1
    17    17    16   ar
    18    17    18   ar
    19    16    21   ar
    20    18    19   ar
    21    21    20   ar
    22    19    20   ar
    23    19    22    1
    24    24    22    1
    25    22    23    1
    26    22    25    1
