@<TRIPOS>MOLECULE
ZINC01097584_replica-1.pdb
 25 27 0 0 0
SMALL
GASTEIGER

@<TRIPOS>ATOM
      1  C1         9.3050   37.5260   60.3680 C.3     0  <0>0        0.0307
      2  C2         8.7580   36.5410   59.3680 C.ar    0  <0>0       -0.0260
      3  C3         7.6350   36.8600   58.6270 C.ar    0  <0>0       -0.0073
      4  C4         7.1320   35.9580   57.7100 C.ar    0  <0>0       -0.0048
      5  C5         7.7570   34.7310   57.5320 C.ar    0  <0>0        0.0462
      6  C6         8.8840   34.4120   58.2770 C.ar    0  <0>0        0.0098
      7  C7         9.3810   35.3180   59.1930 C.ar    0  <0>0       -0.0246
      8  C8        10.6050   34.9750   60.0030 C.3     0  <0>0        0.0307
      9  N1         7.2460   33.8170   56.6030 N.am    0  <0>0       -0.2841
     10  C9         6.4100   34.2280   55.6320 C.2     0  <0>0        0.2268
     11  O1         5.9650   33.4200   54.8430 O.2     0  <0>0       -0.2748
     12  C10        6.0220   35.6760   55.5110 C.3     0  <0>0        0.0941
     13  C11        5.9090   36.3020   56.9010 C.3     0  <0>0        0.0550
     14  H10        7.4970   32.8820   56.6600 H       0  <0>0        0.1548
     15  C12        4.6820   35.7680   57.5940 C.ar    0  <0>0       -0.0142
     16  C17        3.4360   35.9460   57.0220 C.ar    0  <0>0        0.0060
     17  C16        2.3060   35.4580   57.6540 C.ar    0  <0>0        0.0712
     18  C15        2.4220   34.7870   58.8610 C.ar    0  <0>0        0.1784
     19 Br          0.6040   35.7050   56.8690 Br      0  <0>0       -0.0457
     20  C14        3.6770   34.6070   59.4360 C.ar    0  <0>0        0.1726
     21  C13        4.8040   35.1000   58.7980 C.ar    0  <0>0        0.0361
     22  O2         1.3120   34.3110   59.4850 O.3     0  <0>0       -0.4679
     23  C18        0.9590   32.9500   59.2340 C.3     0  <0>0        0.2526
     24  O3         3.7960   33.9500   60.6200 O.3     0  <0>0       -0.4684
     25  C19        5.0920   33.4530   60.9580 C.3     0  <0>0        0.2526
@<TRIPOS>BOND
     1    11    10    2
     2    12    10    1
     3    12    13    1
     4    10     9   am
     5     9    14    1
     6     9     5    1
     7    19    17    1
     8    13    15    1
     9    13     4    1
    10    16    15   ar
    11    16    17   ar
    12     5     4   ar
    13     5     6   ar
    14    15    21   ar
    15    17    18   ar
    16     4     3   ar
    17     6     7   ar
    18     3     2   ar
    19    21    20   ar
    20    18    20   ar
    21    18    22    1
    22     7     2   ar
    23     7     8    1
    24    23    22    1
    25     2     1    1
    26    20    24    1
    27    24    25    1
