@<TRIPOS>MOLECULE
ZINC62138324_replica-1.pdb
 22 23 0 0 0
SMALL
GASTEIGER

@<TRIPOS>ATOM
      1  C10        0.4100   30.7860   55.6720 C.3     0  <0>0        0.1152
      2  C9        -0.1910   30.0530   54.4700 C.3     0  <0>0        0.0342
      3  C8        -0.2470   28.5520   54.7640 C.3     0  <0>0        0.0285
      4  C7        -0.6150   27.8080   53.5070 C.ar    0  <0>0       -0.0260
      5  C2        -0.2340   26.4890   53.3470 C.ar    0  <0>0       -0.0258
      6  C1         0.5510   25.7960   54.4300 C.3     0  <0>0        0.0307
      7  C3        -0.5770   25.8040   52.1960 C.ar    0  <0>0       -0.0046
      8  C4        -1.2960   26.4400   51.2020 C.ar    0  <0>0       -0.0003
      9  C5        -1.6740   27.7610   51.3590 C.ar    0  <0>0       -0.0003
     10  C6        -1.3320   28.4450   52.5100 C.ar    0  <0>0       -0.0046
     11  C11       -0.7090   31.2000   56.6280 C.3     0  <0>0        0.0572
     12  C12       -0.4110   30.6740   58.0090 C.ar    0  <0>0        0.0027
     13  C17        0.3240   31.4380   58.8960 C.ar    0  <0>0        0.1390
     14  C16        0.5940   30.9570   60.1630 C.ar    0  <0>0        0.0237
     15  C15        0.1360   29.7080   60.5400 C.ar    0  <0>0        0.0017
     16  C14       -0.5950   28.9420   59.6510 C.ar    0  <0>0       -0.0002
     17  C13       -0.8680   29.4250   58.3850 C.ar    0  <0>0       -0.0025
     18  N1         0.8180   32.7730   58.4900 N.pl3   0  <0>0        0.0574
     19  O1         0.0960   33.7390   58.5840 O.2     0  <0>0       -0.1261
     20  O2         1.9430   32.8990   58.0640 O.2     0  <0>0       -0.1261
     21  O3         1.1060   31.9500   55.2200 O.3     0  <0>0       -0.3841
     22  H19        0.5690   32.5440   54.6780 H       0  <0>0        0.2103
@<TRIPOS>BOND
     1     8     9   ar
     2     8     7   ar
     3     9    10   ar
     4     7     5   ar
     5    10     4   ar
     6     5     4   ar
     7     5     6    1
     8     4     3    1
     9     2     3    1
    10     2     1    1
    11    22    21    1
    12    21     1    1
    13     1    11    1
    14    11    12    1
    15    12    17   ar
    16    12    13   ar
    17    20    18    2
    18    17    16   ar
    19    18    19    2
    20    18    13    1
    21    13    14   ar
    22    16    15   ar
    23    14    15   ar
