@<TRIPOS>MOLECULE
ZINC09590804_replica-1.pdb
 25 28 0 0 0
SMALL
GASTEIGER

@<TRIPOS>ATOM
      1  C11        8.6060   36.5300   58.7740 C.ar    0  <0>0        0.1870
      2  N1         8.5240   37.7630   58.3120 N.ar    0  <0>0       -0.1264
      3  N2         7.5680   37.8530   57.4490 N.ar    0  <0>0       -0.1203
      4  C12        6.9950   36.6980   57.3140 C.ar    0  <0>0        0.2134
      5  N3         7.6310   35.8060   58.1520 N.ar    0  <0>0       -0.1864
      6  N4         7.2570   34.4720   58.2610 N.2     0  <0>0       -0.1650
      7  C13        6.5440   33.8450   57.3910 C.2     0  <0>0        0.0963
      8  C14        6.0270   34.4020   56.0960 C.3     0  <0>0        0.1130
      9  S1         5.6530   36.1780   56.2930 S.3     0  <0>0       -0.0674
     10  C8         9.5740   36.0260   59.7700 C.ar    0  <0>0        0.0376
     11  C7        10.1780   34.7800   59.5930 C.ar    0  <0>0        0.0028
     12  C6        11.0820   34.3170   60.5270 C.ar    0  <0>0       -0.0042
     13  C5        11.3900   35.0830   61.6360 C.ar    0  <0>0       -0.0228
     14  C10       10.7910   36.3170   61.8200 C.ar    0  <0>0       -0.0042
     15  C9         9.8890   36.7950   60.8910 C.ar    0  <0>0        0.0028
     16  C2        12.3780   34.5700   62.6510 C.3     0  <0>0        0.0189
     17  C1        12.4700   35.5570   63.8170 C.3     0  <0>0        0.0044
     18  C3        13.7540   34.4250   61.9970 C.3     0  <0>0        0.0044
     19  C4        11.9150   33.2080   63.1710 C.3     0  <0>0        0.0044
     20  C15        6.2060   32.4510   57.6930 C.ar    0  <0>0        0.0460
     21  S2         4.7870   31.8000   58.5590 S.2     0  <0>0       -0.0789
     22  C18        5.1980   30.0670   58.4540 C.ar    0  <0>0        0.0638
     23  C17        6.3810   30.0900   57.7810 C.ar    0  <0>0        0.0138
     24 Br          4.2390   28.5770   59.1160 Br      0  <0>0       -0.0419
     25  C16        6.9060   31.2970   57.3870 C.ar    0  <0>0        0.0088
@<TRIPOS>BOND
     1     8     9    1
     2     8     7    1
     3     9     4    1
     4     4     3   ar
     5     4     5   ar
     6    25    20   ar
     7    25    23   ar
     8     7    20    1
     9     7     6    2
    10     3     2   ar
    11    20    21   ar
    12    23    22   ar
    13     5     6    1
    14     5     1   ar
    15     2     1   ar
    16    22    21   ar
    17    22    24    1
    18     1    10    1
    19    11    10   ar
    20    11    12   ar
    21    10    15   ar
    22    12    13   ar
    23    15    14   ar
    24    13    14   ar
    25    13    16    1
    26    18    16    1
    27    16    19    1
    28    16    17    1
