@<TRIPOS>MOLECULE
ZINC35019129_replica-1.pdb
 20 21 0 0 0
SMALL
GASTEIGER

@<TRIPOS>ATOM
      1  C5         8.7130   36.9660   58.9100 C.ar    0  <0>0       -0.0224
      2  C6         8.9390   37.5370   60.1490 C.ar    0  <0>0       -0.0030
      3  C7         9.7320   36.8880   61.0750 C.ar    0  <0>0        0.0140
      4  C8        10.3030   35.6610   60.7600 C.ar    0  <0>0        0.0448
      5  C9        10.0740   35.0910   59.5150 C.ar    0  <0>0        0.0140
      6  C10        9.2740   35.7420   58.5950 C.ar    0  <0>0       -0.0030
      7  N1        11.1060   35.0030   61.6940 N.pl3   0  <0>0       -0.3306
      8  H15       11.4680   35.4890   62.4510 H       0  <0>0        0.1471
      9  C11       11.4010   33.5770   61.5300 C.3     0  <0>0        0.0919
     10  C12       10.2030   32.7500   61.9990 C.3     0  <0>0        0.0261
     11  C13       12.6120   33.2170   62.3520 C.ar    0  <0>0       -0.0046
     12  C18       12.6350   32.0360   63.0690 C.ar    0  <0>0       -0.0027
     13  C17       13.7470   31.7040   63.8210 C.ar    0  <0>0       -0.0003
     14  C16       14.8320   32.5580   63.8610 C.ar    0  <0>0       -0.0000
     15  C15       14.8080   33.7420   63.1490 C.ar    0  <0>0       -0.0003
     16  C14       13.6980   34.0720   62.3950 C.ar    0  <0>0       -0.0027
     17  C3         7.8470   37.6770   57.9020 C.3     0  <0>0        0.0223
     18  C4         8.6890   38.7030   57.1400 C.3     0  <0>0        0.0047
     19  C2         7.2680   36.6600   56.9170 C.3     0  <0>0        0.0044
     20  C1         7.5260   37.1320   55.4850 C.3     0  <0>0        0.0003
@<TRIPOS>BOND
     1    20    19    1
     2    19    17    1
     3    18    17    1
     4    17     1    1
     5     6     1   ar
     6     6     5   ar
     7     1     2   ar
     8     5     4   ar
     9     2     3   ar
    10     4     3   ar
    11     4     7    1
    12     9     7    1
    13     9    10    1
    14     9    11    1
    15     7     8    1
    16    11    16   ar
    17    11    12   ar
    18    16    15   ar
    19    12    13   ar
    20    15    14   ar
    21    13    14   ar
