@<TRIPOS>MOLECULE
ZINC37123612_replica-1.pdb
 22 23 0 0 0
SMALL
GASTEIGER

@<TRIPOS>ATOM
      1  C9         6.1060   35.2420   58.0320 C.ar    0  <0>0        0.0443
      2  C10        6.1270   35.2500   56.6430 C.ar    0  <0>0        0.0143
      3  C11        4.9840   35.5690   55.9380 C.ar    0  <0>0        0.0010
      4  C12        3.8170   35.8790   56.6130 C.ar    0  <0>0       -0.0023
      5  C13        3.7920   35.8710   57.9960 C.ar    0  <0>0        0.0016
      6  C14        4.9300   35.5480   58.7070 C.ar    0  <0>0        0.0119
      7  N1         7.2600   34.9190   58.7490 N.pl3   0  <0>0       -0.3340
      8  H18        7.2500   34.1810   59.3780 H       0  <0>0        0.1468
      9  C6         8.4860   35.6960   58.5510 C.3     0  <0>0        0.0690
     10  C5         8.5090   36.8700   59.5320 C.3     0  <0>0        0.0195
     11  C3         8.4590   38.1870   58.7520 C.3     0  <0>0        0.0016
     12  C4         7.1040   38.8600   58.9740 C.3     0  <0>0        0.0001
     13  C2         8.6500   37.9030   57.2600 C.3     0  <0>0        0.0001
     14  C1         7.5330   38.5840   56.4650 C.3     0  <0>0        0.0000
     15  C7         9.7020   34.8020   58.7970 C.3     0  <0>0        0.0195
     16  C8        10.3890   35.2210   60.0990 C.3     0  <0>0        0.0017
     17  C15        2.5190   36.2110   58.7260 C.3     0  <0>0        0.1344
     18  N2         1.6320   35.0460   58.7290 N.ar    0  <0>0       -0.3036
     19  C18        0.5740   34.8420   57.9140 C.ar    0  <0>0        0.1789
     20  N3         0.0310   33.6930   58.2120 N.ar    0  <0>0       -0.2223
     21  C17        0.7110   33.1310   59.2230 C.ar    0  <0>0        0.1193
     22  C16        1.7160   33.9620   59.5600 C.ar    0  <0>0        0.0983
@<TRIPOS>BOND
     1     3     4   ar
     2     3     2   ar
     3    14    13    1
     4     4     5   ar
     5     2     1   ar
     6    13    11    1
     7    19    20   ar
     8    19    18   ar
     9     5     6   ar
    10     5    17    1
    11     1     6   ar
    12     1     7    1
    13    20    21   ar
    14     9     7    1
    15     9    15    1
    16     9    10    1
    17    17    18    1
    18    18    22   ar
    19     7     8    1
    20    11    12    1
    21    11    10    1
    22    15    16    1
    23    21    22   ar
