@<TRIPOS>MOLECULE
ZINC43536364_replica-1.pdb
 22 23 0 0 0
SMALL
GASTEIGER

@<TRIPOS>ATOM
      1  C4         0.2030   29.9330   55.4170 C.3     0  <0>0        0.0990
      2  C3        -1.1320   29.3470   54.9530 C.3     0  <0>0        0.0264
      3  C2        -1.3020   29.5930   53.4520 C.3     0  <0>0        0.0241
      4  C1        -2.6540   30.2620   53.1940 C.3     0  <0>0        0.0047
      5  C12       -1.2440   28.2780   52.7180 C.ar    0  <0>0       -0.0224
      6  C17       -0.4860   27.2380   53.2230 C.ar    0  <0>0       -0.0043
      7  C16       -0.4360   26.0300   52.5520 C.ar    0  <0>0       -0.0003
      8  C15       -1.1370   25.8660   51.3720 C.ar    0  <0>0       -0.0000
      9  C14       -1.8900   26.9070   50.8650 C.ar    0  <0>0       -0.0003
     10  C13       -1.9430   28.1140   51.5380 C.ar    0  <0>0       -0.0043
     11  C5         0.0720   31.4500   55.5610 C.3     0  <0>0        0.1565
     12  O1         1.3550   32.0570   55.3920 O.3     0  <0>0       -0.3802
     13  H10        1.8510   32.1630   56.2150 H       0  <0>0        0.2105
     14  N1         0.5690   29.3490   56.7100 N.pl3   0  <0>0       -0.3313
     15  H11        1.0630   29.8760   57.3580 H       0  <0>0        0.1469
     16  C6         0.2110   28.0310   57.0090 C.ar    0  <0>0        0.0553
     17  C11       -0.6420   27.7660   58.0740 C.ar    0  <0>0        0.0707
     18  C10       -0.9980   26.4620   58.3640 C.ar    0  <0>0        0.0126
     19 Cl         -1.2630   29.0710   59.0360 Cl      0  <0>0       -0.0810
     20  C9        -0.4980   25.4230   57.6000 C.ar    0  <0>0        0.0009
     21  C8         0.3540   25.6840   56.5430 C.ar    0  <0>0        0.0013
     22  C7         0.7110   26.9850   56.2460 C.ar    0  <0>0        0.0152
@<TRIPOS>BOND
     1     9     8   ar
     2     9    10   ar
     3     8     7   ar
     4    10     5   ar
     5     7     6   ar
     6     5     6   ar
     7     5     3    1
     8     4     3    1
     9     3     2    1
    10     2     1    1
    11    12    11    1
    12    12    13    1
    13     1    11    1
    14     1    14    1
    15    22    21   ar
    16    22    16   ar
    17    21    20   ar
    18    14    16    1
    19    14    15    1
    20    16    17   ar
    21    20    18   ar
    22    17    18   ar
    23    17    19    1
