@<TRIPOS>MOLECULE
ZINC52811714_replica-1.pdb
 22 24 0 0 0
SMALL
GASTEIGER

@<TRIPOS>ATOM
      1  C8         9.4190   34.7030   60.1640 C.2     0  <0>0        0.1806
      2  C9         9.0860   35.9100   59.5010 C.3     0  <0>0        0.1426
      3  C10        9.2760   37.1620   60.0960 C.2     0  <0>0       -0.0110
      4  C11        8.9380   38.2910   59.4090 C.2     0  <0>0       -0.0036
      5  C12        8.4060   38.2130   58.1250 C.2     0  <0>0        0.0020
      6  C13        8.2080   37.0090   57.5180 C.2     0  <0>0        0.0293
      7  C14        8.5450   35.8290   58.1940 C.2     0  <0>0        0.1339
      8  N3         8.3710   34.6190   57.6430 N.2     0  <0>0       -0.3345
      9  C15        8.6970   33.5320   58.3040 C.1     0  <0>0        0.2056
     10  N4         9.2110   33.5600   59.5250 N.2     0  <0>0       -0.3196
     11 Cl          8.4510   31.9920   57.5420 Cl      0  <0>0        0.0244
     12  N2         9.9480   34.7170   61.4360 N.pl3   0  <0>0       -0.3109
     13  H11        9.3600   34.6900   62.2070 H       0  <0>0        0.1489
     14  C6        11.4000   34.7740   61.6250 C.3     0  <0>0        0.0877
     15  C7        11.7530   35.9790   62.5000 C.3     0  <0>0        0.0226
     16  C3        11.8700   33.5100   62.2980 C.3     0  <0>0        0.1196
     17  C2        13.1280   33.1170   62.6210 C.2     0  <0>0        0.0989
     18  C1        14.3260   33.9800   62.3170 C.3     0  <0>0        0.0624
     19  N1        13.2550   31.9430   63.2070 N.2     0  <0>0       -0.4078
     20  C4        12.2110   31.1980   63.4730 C.2     0  <0>0        0.1344
     21  S1        10.9260   32.1150   62.8900 S.3     0  <0>0       -0.0791
     22  C5        12.1710   29.8450   64.1370 C.3     0  <0>0        0.0735
@<TRIPOS>BOND
     1     6     5    2
     2     6     7    1
     3    11     9    1
     4     8     7    2
     5     8     9    2
     6     5     4    1
     7     7     2    1
     8     9    10    2
     9     4     3    2
    10     2     3    1
    11     2     1    1
    12    10     1    2
    13     1    12    1
    14    12    14    1
    15    12    13    1
    16    14    16    1
    17    14    15    1
    18    16    17    1
    19    16    21    1
    20    18    17    1
    21    17    19    2
    22    21    20    1
    23    19    20    2
    24    20    22    1
