@<TRIPOS>MOLECULE
ZINC02140005_replica-1.pdb
 20 23 0 0 0
SMALL
GASTEIGER

@<TRIPOS>ATOM
      1  C1         8.5290   38.5670   56.8290 C.3     0  <0>0        0.0536
      2  C2         7.7220   37.4610   57.4580 C.ar    0  <0>0        0.0765
      3  C3         7.8490   37.0010   58.7840 C.ar    0  <0>0        0.0064
      4  C4         6.9620   36.0090   58.9650 C.ar    0  <0>0        0.0605
      5  N1         6.2840   35.8380   57.7870 N.ar    0  <0>0       -0.2026
      6  N2         6.7890   36.7660   56.8690 N.ar    0  <0>0       -0.1678
      7  C5         5.3070   34.9400   57.5550 C.2     0  <0>0        0.2580
      8  O1         5.0190   34.1290   58.4030 O.2     0  <0>0       -0.2701
      9  C10        7.0380   35.4600   60.3690 C.3     0  <0>0        0.0460
     10  C11        8.1360   36.2540   61.0940 C.3     0  <0>0        0.0103
     11  C12        8.6410   37.2550   60.0450 C.3     0  <0>0        0.0251
     12  C13        9.5710   36.1590   60.5690 C.3     0  <0>0        0.0045
     13  C14        9.9020   35.0030   59.6230 C.3     0  <0>0        0.0003
     14  C15       10.6970   36.5820   61.5140 C.3     0  <0>0        0.0003
     15  C6         4.5750   34.9470   56.2380 C.3     0  <0>0        0.1013
     16  C8         5.1310   34.0670   55.1160 C.3     0  <0>0        0.1416
     17  C7         3.8380   33.6700   55.8320 C.3     0  <0>0        0.0422
     18 Cl          4.9920   34.6840   53.4280 Cl      0  <0>0       -0.0991
     19 Cl          6.6100   33.1000   55.4730 Cl      0  <0>0       -0.0991
     20  C9         3.9440   36.2840   55.8410 C.3     0  <0>0        0.0119
@<TRIPOS>BOND
     1    18    16    1
     2    16    19    1
     3    16    17    1
     4    16    15    1
     5    17    15    1
     6    20    15    1
     7    15     7    1
     8     1     2    1
     9     6     2   ar
    10     6     5   ar
    11     2     3   ar
    12     7     5   am
    13     7     8    2
    14     5     4   ar
    15     3     4   ar
    16     3    11    1
    17     4     9    1
    18    13    12    1
    19    11    12    1
    20    11    10    1
    21     9    10    1
    22    12    10    1
    23    12    14    1
