@<TRIPOS>MOLECULE
ZINC28724597_replica-1.pdb
 25 26 0 0 0
SMALL
GASTEIGER

@<TRIPOS>ATOM
      1  C4         8.7730   35.4170   58.8690 C.2     0  <0>0        0.0306
      2  C5         7.8770   35.9440   58.0060 C.2     0  <0>0        0.0845
      3  C6         7.0700   34.9850   57.1540 C.3     0  <0>0        0.1234
      4  N1         7.3300   33.5470   57.3400 N.am    0  <0>0       -0.3102
      5  C7         8.2570   33.1750   58.2440 C.2     0  <0>0        0.1353
      6  S1         8.5710   31.5070   58.4700 S.2     0  <0>0       -0.0185
      7  N2         8.9470   34.0670   58.9660 N.am    0  <0>0       -0.2992
      8  H9         6.8440   32.8840   56.8240 H       0  <0>0        0.1490
      9  H10        9.6050   33.7340   59.5970 H       0  <0>0        0.1536
     10  C8         5.6100   35.2320   57.4350 C.ar    0  <0>0       -0.0001
     11  C13        5.0910   34.9530   58.6860 C.ar    0  <0>0       -0.0027
     12  C12        3.7530   35.1840   58.9460 C.ar    0  <0>0       -0.0045
     13  C11        2.9320   35.6860   57.9520 C.ar    0  <0>0       -0.0225
     14  C10        3.4500   35.9600   56.7000 C.ar    0  <0>0       -0.0045
     15  C9         4.7900   35.7320   56.4410 C.ar    0  <0>0       -0.0027
     16  C14        1.4730   35.9340   58.2350 C.3     0  <0>0        0.0224
     17  C15        0.6590   35.6890   56.9630 C.3     0  <0>0        0.0047
     18  C16        0.9980   34.9850   59.3360 C.3     0  <0>0        0.0047
     19  C17        7.7000   37.3430   57.9000 C.2     0  <0>0        0.3401
     20  O1         7.0870   37.9450   58.7610 O.2     0  <0>0       -0.2451
     21  O2         8.2110   38.0100   56.8430 O.3     0  <0>0       -0.4415
     22  C18        7.2960   38.3950   55.8160 C.3     0  <0>0        0.2559
     23  C3         9.5970   36.3350   59.7350 C.3     0  <0>0        0.0412
     24  C2        10.4990   35.5020   60.6460 C.3     0  <0>0        0.0060
     25  C1        10.9170   36.3430   61.8550 C.3     0  <0>0        0.0004
@<TRIPOS>BOND
     1    22    21    1
     2    15    14   ar
     3    15    10   ar
     4    14    13   ar
     5     8     4    1
     6    21    19    1
     7    17    16    1
     8     3     4    1
     9     3    10    1
    10     3     2    1
    11     4     5    1
    12    10    11   ar
    13    19     2    1
    14    19    20    2
    15    13    16    1
    16    13    12   ar
    17     2     1    2
    18    16    18    1
    19     5     6    2
    20     5     7    1
    21    11    12   ar
    22     1     7    1
    23     1    23    1
    24     7     9    1
    25    23    24    1
    26    24    25    1
