@<TRIPOS>MOLECULE
ZINC37881128_replica-1.pdb
 23 24 0 0 0
SMALL
GASTEIGER

@<TRIPOS>ATOM
      1  C9        -1.5310   31.0080   55.6310 C.3     0  <0>0        0.1521
      2  C8        -0.6410   30.5420   54.4780 C.3     0  <0>0        0.1213
      3  N1        -1.4760   29.9910   53.4080 N.pl3   0  <0>0       -0.3304
      4  H8        -2.1990   30.5200   53.0350 H       0  <0>0        0.1469
      5  C5        -1.2330   28.7020   52.9250 C.ar    0  <0>0        0.0469
      6  C4        -1.7330   28.3170   51.6880 C.ar    0  <0>0        0.0141
      7  C3        -1.4910   27.0440   51.2130 C.ar    0  <0>0       -0.0008
      8  C2        -0.7510   26.1510   51.9660 C.ar    0  <0>0        0.0057
      9  C1        -0.4890   24.7610   51.4440 C.3     0  <0>0        0.0334
     10  C7        -0.2550   26.5300   53.2020 C.ar    0  <0>0        0.1374
     11  C6        -0.4900   27.8060   53.6820 C.ar    0  <0>0        0.0436
     12  F1         0.4640   25.6540   53.9390 F       0  <0>0       -0.2045
     13  C10       -1.7770   29.8560   56.5710 C.ar    0  <0>0        0.0059
     14  C15       -2.8520   29.0120   56.3630 C.ar    0  <0>0       -0.0022
     15  C14       -3.0750   27.9520   57.2230 C.ar    0  <0>0       -0.0045
     16  C13       -2.2300   27.7440   58.2960 C.ar    0  <0>0       -0.0225
     17  C12       -1.1580   28.5920   58.5080 C.ar    0  <0>0       -0.0045
     18  C11       -0.9330   29.6480   57.6450 C.ar    0  <0>0       -0.0022
     19  C16       -2.4750   26.5910   59.2360 C.3     0  <0>0        0.0224
     20  C17       -1.6970   25.3650   58.7520 C.3     0  <0>0        0.0047
     21  C18       -2.0080   26.9710   60.6420 C.3     0  <0>0        0.0047
     22  O1        -0.8820   32.0680   56.3360 O.3     0  <0>0       -0.3783
     23  H22       -1.4790   32.7720   56.6260 H       0  <0>0        0.2109
@<TRIPOS>BOND
     1     7     6   ar
     2     7     8   ar
     3     9     8    1
     4     6     5   ar
     5     8    10   ar
     6     5     3    1
     7     5    11   ar
     8     4     3    1
     9    10    11   ar
    10    10    12    1
    11     3     2    1
    12     2     1    1
    13     1    22    1
    14     1    13    1
    15    22    23    1
    16    14    13   ar
    17    14    15   ar
    18    13    18   ar
    19    15    16   ar
    20    18    17   ar
    21    16    17   ar
    22    16    19    1
    23    20    19    1
    24    19    21    1
