@<TRIPOS>MOLECULE
ZINC05566089_replica-1.pdb
 27 29 0 0 0
SMALL
GASTEIGER

@<TRIPOS>ATOM
      1  C1        -2.3070   30.0390   53.3680 C.3     0  <0>0        0.0496
      2  C2        -0.9820   30.0270   54.0870 C.2     0  <0>0        0.0621
      3  N1        -0.4490   31.1300   54.4630 N.2     0  <0>0       -0.1895
      4  C9        -0.2860   28.7200   54.3640 C.3     0  <0>0        0.0820
      5  C10       -0.7640   28.1660   55.6820 C.ar    0  <0>0       -0.0131
      6  C15        0.0500   27.3150   56.4080 C.ar    0  <0>0       -0.0036
      7  C14       -0.3880   26.8070   57.6170 C.ar    0  <0>0       -0.0003
      8  C13       -1.6370   27.1500   58.1000 C.ar    0  <0>0       -0.0000
      9  C12       -2.4490   28.0000   57.3740 C.ar    0  <0>0       -0.0003
     10  C11       -2.0130   28.5080   56.1640 C.ar    0  <0>0       -0.0036
     11  C16       -0.6000   27.7400   53.2630 C.ar    0  <0>0       -0.0131
     12  C21       -0.1820   26.4270   53.3680 C.ar    0  <0>0       -0.0036
     13  C20       -0.4690   25.5270   52.3590 C.ar    0  <0>0       -0.0003
     14  C19       -1.1760   25.9410   51.2450 C.ar    0  <0>0       -0.0000
     15  C18       -1.5950   27.2540   51.1400 C.ar    0  <0>0       -0.0003
     16  C17       -1.3110   28.1520   52.1520 C.ar    0  <0>0       -0.0036
     17  N2         0.7120   31.1130   55.2460 N.pl3   0  <0>0       -0.2366
     18  H4         1.5300   30.7270   54.8950 H       0  <0>0        0.1744
     19  C3         0.6920   31.6510   56.5350 C.ar    0  <0>0        0.0651
     20  C8         0.7810   30.8150   57.6410 C.ar    0  <0>0        0.0177
     21  C7         0.7620   31.3520   58.9130 C.ar    0  <0>0        0.0254
     22  C6         0.6560   32.7200   59.0880 C.ar    0  <0>0        0.1430
     23  C5         0.5670   33.5550   57.9890 C.ar    0  <0>0        0.0254
     24  C4         0.5910   33.0260   56.7130 C.ar    0  <0>0        0.0177
     25  N3         0.6360   33.2910   60.4530 N.pl3   0  <0>0        0.0577
     26  O1         0.9640   32.6060   61.4040 O.2     0  <0>0       -0.1261
     27  O2         0.2900   34.4460   60.6240 O.2     0  <0>0       -0.1261
@<TRIPOS>BOND
     1    15    14   ar
     2    15    16   ar
     3    14    13   ar
     4    16    11   ar
     5    13    12   ar
     6    11    12   ar
     7    11     4    1
     8     1     2    1
     9     2     4    1
    10     2     3    2
    11     4     5    1
    12     3    17    1
    13    18    17    1
    14    17    19    1
    15     5    10   ar
    16     5     6   ar
    17    10     9   ar
    18     6     7   ar
    19    19    24   ar
    20    19    20   ar
    21    24    23   ar
    22     9     8   ar
    23     7     8   ar
    24    20    21   ar
    25    23    22   ar
    26    21    22   ar
    27    22    25    1
    28    25    27    2
    29    25    26    2
