@<TRIPOS>MOLECULE
ZINC39358170_replica-1.pdb
 29 33 0 0 0
SMALL
GASTEIGER

@<TRIPOS>ATOM
      1  C7        10.1220   35.4220   60.5540 C.2     0  <0>0        0.2257
      2  O1        10.0190   36.6110   60.7720 O.2     0  <0>0       -0.2749
      3  N2         9.0660   34.7310   60.0810 N.am    0  <0>0       -0.2793
      4  C8         9.1940   33.2930   59.8240 C.3     0  <0>0        0.0935
      5  C9         7.9980   32.5160   60.4030 C.3     0  <0>0        0.0242
      6  C10        6.7390   33.1960   59.8990 C.3     0  <0>0        0.0354
      7  C11        5.4100   32.6880   60.4480 C.3     0  <0>0        0.0637
      8  C12        4.7770   31.6440   59.5840 C.2     0  <0>0       -0.0204
      9  C13        3.4980   31.7140   59.2320 C.2     0  <0>0       -0.0042
     10  C14        2.6250   32.8090   59.6460 C.2     0  <0>0        0.0009
     11  C15        3.1490   33.9230   60.2170 C.2     0  <0>0        0.0146
     12  C16        4.5600   33.9550   60.4170 C.2     0  <0>0        0.0574
     13  N3         5.3260   35.0120   60.4820 N.2     0  <0>0       -0.2747
     14  C17        6.7280   34.6180   60.5420 C.3     0  <0>0        0.1216
     15  C18        7.7830   35.4290   59.8290 C.3     0  <0>0        0.0975
     16  C6        11.4280   34.7190   60.8120 C.3     0  <0>0        0.0865
     17  C5        11.7400   34.7530   62.3100 C.3     0  <0>0        0.0261
     18  C3        12.1770   33.3850   62.7650 C.3     0  <0>0        0.0854
     19  C2        13.4240   32.9140   63.0230 C.2     0  <0>0        0.0426
     20  C1        14.6430   33.7880   62.8710 C.3     0  <0>0        0.0477
     21  N1        13.5210   31.6570   63.4070 N.2     0  <0>0       -0.2662
     22  C4        12.4580   30.9030   63.5420 C.3     0  <0>0        0.1825
     23  S1        11.1980   31.9330   63.1140 S.3     0  <0>0       -0.1094
     24  C19        7.4890   35.4710   58.3280 C.3     0  <0>0        0.0201
     25  C24        6.5830   36.6640   58.0190 C.3     0  <0>0        0.0017
     26  C23        6.2890   36.7060   56.5180 C.3     0  <0>0        0.0001
     27  C22        7.6020   36.8470   55.7450 C.3     0  <0>0        0.0000
     28  C21        8.5070   35.6530   56.0540 C.3     0  <0>0        0.0001
     29  C20        8.8010   35.6130   57.5550 C.3     0  <0>0        0.0017
@<TRIPOS>BOND
     1    27    28    1
     2    27    26    1
     3    28    29    1
     4    26    25    1
     5    29    24    1
     6    25    24    1
     7    24    15    1
     8     9     8    2
     9     9    10    1
    10     8     7    1
    11    10    11    2
    12     4     3    1
    13     4     5    1
    14    15     3    1
    15    15    14    1
    16     6     5    1
    17     6     7    1
    18     6    14    1
    19     3     1   am
    20    11    12    1
    21    12     7    1
    22    12    13    2
    23    13    14    1
    24     1     2    2
    25     1    16    1
    26    16    17    1
    27    17    18    1
    28    18    19    1
    29    18    23    1
    30    20    19    1
    31    19    21    2
    32    23    22    1
    33    21    22    1
