@<TRIPOS>MOLECULE
ZINC04324250_replica-1.pdb
 22 24 0 0 0
SMALL
GASTEIGER

@<TRIPOS>ATOM
      1  C2         8.7170   35.5400   59.8700 C.2     0  <0>0        0.2166
      2  N2         9.5670   34.7110   60.4470 N.2     0  <0>0       -0.3834
      3  C3        10.4720   35.1480   61.3190 C.2     0  <0>0        0.1285
      4  C4        10.5180   36.4830   61.6220 C.3     0  <0>0        0.1252
      5  S1         9.2000   37.1050   60.5860 S.3     0  <0>0       -0.0590
      6  N1         7.7170   35.2700   58.9460 N.am    0  <0>0       -0.2238
      7  C1         6.4580   34.6620   59.3850 C.3     0  <0>0        0.1233
      8  C9         7.9020   35.5690   57.6450 C.2     0  <0>0        0.2549
      9  O1         8.9750   36.0000   57.2670 O.2     0  <0>0       -0.2695
     10  C10        6.8040   35.3720   56.6770 C.ar    0  <0>0        0.0541
     11  C15        5.8370   36.3650   56.5040 C.ar    0  <0>0        0.0068
     12  C14        4.8130   36.1760   55.6000 C.ar    0  <0>0        0.0298
     13  C13        4.7440   35.0040   54.8630 C.ar    0  <0>0        0.1401
     14  C12        5.7010   34.0150   55.0310 C.ar    0  <0>0        0.0298
     15  F1         3.7390   34.8250   53.9780 F       0  <0>0       -0.2042
     16  C11        6.7290   34.1940   55.9330 C.ar    0  <0>0        0.0068
     17  C5        11.4150   34.2040   61.9550 C.ar    0  <0>0        0.0566
     18  S2        11.1360   32.5250   62.4930 S.2     0  <0>0       -0.0732
     19  C8        12.7740   32.1820   63.1150 C.ar    0  <0>0        0.0870
     20  C7        13.4190   33.3530   62.8760 C.ar    0  <0>0        0.0186
     21 Cl         13.3840   30.7270   63.8390 Cl      0  <0>0       -0.0752
     22  C6        12.7330   34.3890   62.2780 C.ar    0  <0>0        0.0101
@<TRIPOS>BOND
     1    15    13    1
     2    13    14   ar
     3    13    12   ar
     4    14    16   ar
     5    12    11   ar
     6    16    10   ar
     7    11    10   ar
     8    10     8    1
     9     9     8    2
    10     8     6   am
    11     6     7    1
    12     6     1    1
    13     1     2    2
    14     1     5    1
    15     2     3    2
    16     5     4    1
    17     3     4    1
    18     3    17    1
    19    17    22   ar
    20    17    18   ar
    21    22    20   ar
    22    18    19   ar
    23    20    19   ar
    24    19    21    1
