@<TRIPOS>MOLECULE
ZINC59382142_replica-1.pdb
 32 36 0 0 0
SMALL
GASTEIGER

@<TRIPOS>ATOM
      1  C1         9.2860   34.8970   58.2060 C.3     0  <0>0        0.0103
      2  C2         8.0170   34.3830   58.8880 C.3     0  <0>0        0.0860
      3  C3         7.8440   34.9080   60.3150 C.3     0  <0>0        0.0525
      4  C4         7.0790   36.1850   60.3860 C.2     0  <0>0       -0.0258
      5  C5         6.3280   36.6480   59.4440 C.2     0  <0>0       -0.0258
      6  C6         6.1650   35.9760   58.1160 C.3     0  <0>0        0.0530
      7  C7         6.7420   34.6200   58.0620 C.3     0  <0>0        0.0942
      8  C8         5.8420   33.5020   58.5070 C.2     0  <0>0        0.2358
      9  O1         4.6300   33.5000   58.5040 O.2     0  <0>0       -0.2741
     10  N1         6.6540   32.5000   58.9090 N.am    0  <0>0       -0.2051
     11  C9         7.9520   32.8500   58.9970 C.2     0  <0>0        0.2354
     12  O2         8.8930   32.0980   59.1370 O.2     0  <0>0       -0.2741
     13  C10        6.1870   31.2100   59.2090 C.ar    0  <0>0        0.0945
     14  C15        5.9130   30.8560   60.5270 C.ar    0  <0>0        0.1526
     15  C14        5.4480   29.5820   60.8160 C.ar    0  <0>0        0.0382
     16  C13        5.2680   28.6650   59.7990 C.ar    0  <0>0        0.0032
     17  C12        5.5450   29.0150   58.4900 C.ar    0  <0>0        0.0015
     18  C11        6.0050   30.2840   58.1920 C.ar    0  <0>0        0.0184
     19  O3         6.0960   31.7580   61.5270 O.3     0  <0>0       -0.4702
     20  C16        4.9730   32.5660   61.8850 C.3     0  <0>0        0.2525
     21  C17        4.6960   35.9000   57.7910 C.ar    0  <0>0       -0.0180
     22  C22        4.2870   35.6390   56.4970 C.ar    0  <0>0       -0.0039
     23  C21        2.9380   35.5650   56.2010 C.ar    0  <0>0       -0.0003
     24  C20        2.0000   35.7620   57.1960 C.ar    0  <0>0       -0.0000
     25  C19        2.4090   36.0290   58.4890 C.ar    0  <0>0       -0.0003
     26  C18        3.7570   36.0980   58.7870 C.ar    0  <0>0       -0.0039
     27  C23        9.2080   35.1310   60.9170 C.ar    0  <0>0       -0.0180
     28  C28       10.0540   34.0580   61.1300 C.ar    0  <0>0       -0.0039
     29  C27       11.3060   34.2640   61.6780 C.ar    0  <0>0       -0.0003
     30  C26       11.7090   35.5410   62.0210 C.ar    0  <0>0       -0.0000
     31  C25       10.8610   36.6120   61.8130 C.ar    0  <0>0       -0.0003
     32  C24        9.6100   36.4080   61.2610 C.ar    0  <0>0       -0.0039
@<TRIPOS>BOND
     1    23    22   ar
     2    23    24   ar
     3    22    21   ar
     4    24    25   ar
     5    21     6    1
     6    21    26   ar
     7     7     6    1
     8     7     8    1
     9     7     2    1
    10     6     5    1
    11    18    17   ar
    12    18    13   ar
    13     1     2    1
    14    25    26   ar
    15    17    16   ar
    16     9     8    2
    17     8    10   am
    18     2    11    1
    19     2     3    1
    20    10    11   am
    21    10    13    1
    22    11    12    2
    23    13    14   ar
    24     5     4    2
    25    16    15   ar
    26     3     4    1
    27     3    27    1
    28    14    15   ar
    29    14    19    1
    30    27    28   ar
    31    27    32   ar
    32    28    29   ar
    33    32    31   ar
    34    19    20    1
    35    29    30   ar
    36    31    30   ar
