@<TRIPOS>MOLECULE
ZINC37299288_replica-1.pdb
 22 23 0 0 0
SMALL
GASTEIGER

@<TRIPOS>ATOM
      1  N1        10.4520   34.1060   61.5450 N.pl3   0  <0>0       -0.3306
      2  H8         9.6060   33.6320   61.5780 H       0  <0>0        0.1471
      3  C2        10.5480   35.3870   60.8430 C.3     0  <0>0        0.0919
      4  C1        10.0740   36.5110   61.7660 C.3     0  <0>0        0.0261
      5  C3         9.6810   35.3500   59.6100 C.ar    0  <0>0       -0.0039
      6  C8         9.2820   36.5310   59.0110 C.ar    0  <0>0        0.0063
      7  C7         8.4910   36.4980   57.8770 C.ar    0  <0>0        0.0617
      8  C6         8.0890   35.2820   57.3480 C.ar    0  <0>0        0.1462
      9 Br          7.9520   38.1120   57.0540 Br      0  <0>0       -0.0467
     10  C5         8.4860   34.1020   57.9530 C.ar    0  <0>0        0.0299
     11  F1         7.3120   35.2490   56.2440 F       0  <0>0       -0.2037
     12  C4         9.2800   34.1370   59.0840 C.ar    0  <0>0       -0.0003
     13  C9        11.5800   33.5630   62.1680 C.ar    0  <0>0        0.0466
     14  C14       11.5380   32.2750   62.6860 C.ar    0  <0>0        0.0407
     15  C13       12.6560   31.7400   63.2950 C.ar    0  <0>0        0.1713
     16  C12       13.8140   32.4910   63.4010 C.ar    0  <0>0        0.1625
     17  C11       13.8580   33.7770   62.8900 C.ar    0  <0>0        0.0326
     18  F2        14.9050   31.9670   64.0030 F       0  <0>0       -0.2024
     19  C10       12.7450   34.3140   62.2740 C.ar    0  <0>0        0.0167
     20  N2        12.6130   30.3650   63.8410 N.pl3   0  <0>0        0.0600
     21  O1        12.6540   29.4160   63.0930 O.2     0  <0>0       -0.1260
     22  O2        12.5380   30.1910   65.0360 O.2     0  <0>0       -0.1260
@<TRIPOS>BOND
     1    11     8    1
     2     9     7    1
     3     8     7   ar
     4     8    10   ar
     5     7     6   ar
     6    10    12   ar
     7     6     5   ar
     8    12     5   ar
     9     5     3    1
    10     3     1    1
    11     3     4    1
    12     1     2    1
    13     1    13    1
    14    13    19   ar
    15    13    14   ar
    16    19    17   ar
    17    14    15   ar
    18    17    16   ar
    19    21    20    2
    20    15    16   ar
    21    15    20    1
    22    16    18    1
    23    20    22    2
