@<TRIPOS>MOLECULE
ZINC49902929_replica-1.pdb
 24 25 0 0 0
SMALL
GASTEIGER

@<TRIPOS>ATOM
      1  C9        -2.0640   30.5430   54.7840 C.3     0  <0>0        0.1521
      2  C8        -2.2590   29.5640   53.6240 C.3     0  <0>0        0.1213
      3  N1        -0.9540   29.0730   53.1750 N.pl3   0  <0>0       -0.3309
      4  H8        -0.2090   29.6880   53.0860 H       0  <0>0        0.1469
      5  C7        -0.7820   27.7190   52.8760 C.ar    0  <0>0        0.0366
      6  C2        -0.0620   26.9020   53.7380 C.ar    0  <0>0       -0.0090
      7  C1         0.5350   27.4740   54.9980 C.3     0  <0>0        0.0323
      8  C3         0.1020   25.5640   53.4420 C.ar    0  <0>0       -0.0031
      9  C4        -0.4440   25.0380   52.2850 C.ar    0  <0>0       -0.0006
     10  C5        -1.1570   25.8490   51.4230 C.ar    0  <0>0       -0.0031
     11  C6        -1.3250   27.1890   51.7120 C.ar    0  <0>0       -0.0090
     12  C20       -2.1020   28.0730   50.7720 C.3     0  <0>0        0.0323
     13  C10       -1.9660   29.7770   56.0780 C.ar    0  <0>0        0.0059
     14  C15       -2.7740   28.6760   56.2920 C.ar    0  <0>0       -0.0022
     15  C14       -2.6800   27.9700   57.4770 C.ar    0  <0>0       -0.0045
     16  C13       -1.7850   28.3700   58.4510 C.ar    0  <0>0       -0.0228
     17  C12       -0.9810   29.4740   58.2390 C.ar    0  <0>0       -0.0045
     18  C11       -1.0710   30.1780   57.0520 C.ar    0  <0>0       -0.0022
     19  C16       -1.6860   27.6030   59.7450 C.3     0  <0>0        0.0189
     20  C17       -1.4740   28.5810   60.9020 C.3     0  <0>0        0.0044
     21  C18       -2.9790   26.8170   59.9720 C.3     0  <0>0        0.0044
     22  C19       -0.5050   26.6330   59.6730 C.3     0  <0>0        0.0044
     23  O1        -0.8620   31.2890   54.5810 O.3     0  <0>0       -0.3783
     24  H24       -0.9600   32.0350   53.9750 H       0  <0>0        0.2109
@<TRIPOS>BOND
     1    12    11    1
     2    10    11   ar
     3    10     9   ar
     4    11     5   ar
     5     9     8   ar
     6     5     3    1
     7     5     6   ar
     8     4     3    1
     9     3     2    1
    10     8     6   ar
    11     2     1    1
    12     6     7    1
    13    24    23    1
    14    23     1    1
    15     1    13    1
    16    13    14   ar
    17    13    18   ar
    18    14    15   ar
    19    18    17   ar
    20    15    16   ar
    21    17    16   ar
    22    16    19    1
    23    22    19    1
    24    19    21    1
    25    19    20    1
