@<TRIPOS>MOLECULE
ZINC53095326_replica-1.pdb
 23 24 0 0 0
SMALL
GASTEIGER

@<TRIPOS>ATOM
      1  C8         0.2880   32.7040   56.9390 C.2     0  <0>0        0.2518
      2  O1         0.1140   32.8630   58.1320 O.2     0  <0>0       -0.2696
      3  N1         1.1300   33.5130   56.2660 N.am    0  <0>0       -0.3012
      4  H9         1.3260   33.3400   55.3320 H       0  <0>0        0.1497
      5  C7        -0.4200   31.6320   56.2310 C.ar    0  <0>0        0.0821
      6  C6        -1.4830   30.8530   56.6640 C.ar    0  <0>0        0.0069
      7  C5        -1.9400   29.9170   55.7680 C.ar    0  <0>0       -0.0195
      8  C4        -1.3400   29.8170   54.5560 C.ar    0  <0>0        0.0034
      9  S1        -0.1340   30.9860   54.5960 S.2     0  <0>0       -0.0871
     10  C16       -3.0910   29.0140   56.1280 C.3     0  <0>0        0.0266
     11  C17       -2.7010   28.1400   57.3220 C.3     0  <0>0        0.0050
     12  C3        -1.6750   28.8700   53.4330 C.3     0  <0>0        0.0326
     13  C2        -0.6170   27.7670   53.3630 C.3     0  <0>0        0.0052
     14  C1        -0.8390   26.9250   52.1060 C.3     0  <0>0        0.0004
     15  C9         1.7480   34.6540   56.9450 C.3     0  <0>0        0.0840
     16  C14        2.5770   34.1540   58.1300 C.3     0  <0>0        0.0205
     17  C13        3.6680   33.2090   57.6260 C.3     0  <0>0        0.0017
     18  C12        4.5780   33.9550   56.6470 C.3     0  <0>0        0.0001
     19  C11        3.7490   34.4540   55.4620 C.3     0  <0>0        0.0017
     20  C10        2.6560   35.4000   55.9660 C.3     0  <0>0        0.0205
     21  C15        0.6570   35.6000   57.4500 C.3     0  <0>0        0.1549
     22  O2         0.0520   36.2650   56.3380 O.3     0  <0>0       -0.3803
     23  H22       -0.8870   36.4610   56.4610 H       0  <0>0        0.2105
@<TRIPOS>BOND
     1    14    13    1
     2    13    12    1
     3    12     8    1
     4     8     9   ar
     5     8     7   ar
     6     9     5   ar
     7     4     3    1
     8    19    20    1
     9    19    18    1
    10     7    10    1
    11     7     6   ar
    12    20    15    1
    13    10    11    1
    14     5     6   ar
    15     5     1    1
    16     3     1   am
    17     3    15    1
    18    22    23    1
    19    22    21    1
    20    18    17    1
    21     1     2    2
    22    15    21    1
    23    15    16    1
    24    17    16    1
