@<TRIPOS>MOLECULE
ZINC62765800_replica-1.pdb
 19 20 0 0 0
SMALL
GASTEIGER

@<TRIPOS>ATOM
      1  C5        11.3710   35.0980   61.7110 C.ar    0  <0>0       -0.0228
      2  C6        10.9450   36.3280   62.1790 C.ar    0  <0>0       -0.0038
      3  C7        10.0350   37.0680   61.4510 C.ar    0  <0>0        0.0058
      4  C8         9.5460   36.5760   60.2470 C.ar    0  <0>0        0.0252
      5  C9         9.9760   35.3400   59.7800 C.ar    0  <0>0        0.0058
      6  C10       10.8900   34.6080   60.5100 C.ar    0  <0>0       -0.0038
      7  S1         8.3840   37.5160   59.3150 S.3     0  <0>0       -0.1140
      8  C11        8.3410   36.6880   57.7020 C.3     0  <0>0        0.0626
      9  C15        7.0230   35.9120   57.5420 C.3     0  <0>0        0.1136
     10  C14        6.3030   36.5160   56.3170 C.3     0  <0>0        0.0121
     11  C13        7.4420   37.1510   55.4820 C.3     0  <0>0        0.0015
     12  C12        8.3780   37.7340   56.5690 C.3     0  <0>0        0.0117
     13  C16        7.3080   34.4510   57.3060 C.2     0  <0>0        0.3652
     14  O1         6.4530   33.6160   57.5480 O.co2   0  <0>0       -0.2456
     15  O2         8.3940   34.1040   56.8740 O.co2   0  <0>0       -0.2456
     16  C2        12.3640   34.2930   62.5090 C.3     0  <0>0        0.0189
     17  C1        13.6680   34.1660   61.7190 C.3     0  <0>0        0.0044
     18  C3        11.7920   32.8990   62.7780 C.3     0  <0>0        0.0044
     19  C4        12.6390   34.9960   63.8390 C.3     0  <0>0        0.0044
@<TRIPOS>BOND
     1    11    10    1
     2    11    12    1
     3    10     9    1
     4    12     8    1
     5    15    13   ar
     6    13     9    1
     7    13    14   ar
     8     9     8    1
     9     8     7    1
    10     7     4    1
    11     5     4   ar
    12     5     6   ar
    13     4     3   ar
    14     6     1   ar
    15     3     2   ar
    16     1     2   ar
    17     1    16    1
    18    17    16    1
    19    16    18    1
    20    16    19    1
