@<TRIPOS>MOLECULE
ZINC38981209_replica-1.pdb
 23 26 0 0 0
SMALL
GASTEIGER

@<TRIPOS>ATOM
      1  C5        10.3940   35.3250   60.3070 C.3     0  <0>0        0.2341
      2  N1         9.4560   36.2600   60.9320 N.2     0  <0>0       -0.2419
      3  C6         8.2460   35.9700   60.5480 C.ar    0  <0>0        0.0958
      4  C7         6.9450   36.5860   60.8750 C.ar    0  <0>0        0.0215
      5  C8         5.8220   36.0830   60.3340 C.ar    0  <0>0        0.0163
      6  C9         5.8860   34.9320   59.4260 C.ar    0  <0>0        0.0521
      7  C10        7.1210   34.3310   59.1050 C.ar    0  <0>0        0.0349
      8  C11        8.2780   34.8090   59.6310 C.ar    0  <0>0        0.0969
      9  N2         9.5930   34.4120   59.4800 N.2     0  <0>0       -0.2418
     10  N3         4.7640   34.4470   58.9010 N.am    0  <0>0       -0.2799
     11  C12        3.5990   35.0830   59.1040 C.2     0  <0>0        0.2555
     12  O1         3.4830   36.2580   58.7970 O.2     0  <0>0       -0.2693
     13  H8         4.7880   33.6370   58.3700 H       0  <0>0        0.1552
     14  C13        2.4640   34.3630   59.6960 C.ar    0  <0>0        0.0831
     15  S2         2.4720   32.9280   60.7540 S.2     0  <0>0       -0.0819
     16  C16        0.8160   32.7520   60.9770 C.ar    0  <0>0        0.0356
     17  C15        0.2740   33.7620   60.2520 C.ar    0  <0>0        0.0076
     18  C14        1.1060   34.6190   59.5730 C.ar    0  <0>0        0.0116
     19  C3        11.1320   34.5480   61.3670 C.ar    0  <0>0        0.0524
     20  C2        12.2040   34.9210   62.1070 C.ar    0  <0>0        0.0065
     21  C1        12.7200   34.0340   63.0330 C.ar    0  <0>0        0.0073
     22  C4        12.1390   32.8170   63.1730 C.ar    0  <0>0        0.0352
     23  S1        10.8200   32.8980   61.9740 S.2     0  <0>0       -0.0869
@<TRIPOS>BOND
     1    13    10    1
     2    12    11    2
     3    10    11   am
     4    10     6    1
     5    11    14    1
     6     7     6   ar
     7     7     8   ar
     8     6     5   ar
     9     9     8    2
    10     9     1    1
    11    18    14   ar
    12    18    17   ar
    13     8     3   ar
    14    14    15   ar
    15    17    16   ar
    16     1     2    1
    17     1    19    1
    18     5     4   ar
    19     3     4   ar
    20     3     2    2
    21    15    16   ar
    22    19    23   ar
    23    19    20   ar
    24    23    22   ar
    25    20    21   ar
    26    21    22   ar
