@<TRIPOS>MOLECULE
ZINC37639224_replica-1.pdb
 28 31 0 0 0
SMALL
GASTEIGER

@<TRIPOS>ATOM
      1  N1         8.1740   32.7940   60.1240 N.ar    0  <0>0       -0.2487
      2  C4         9.3310   33.0570   60.7560 C.ar    0  <0>0        0.2661
      3  O1        10.0630   32.1470   61.1040 O.2     0  <0>0       -0.2668
      4  C5         9.7060   34.4610   61.0240 C.ar    0  <0>0        0.0789
      5  C6        10.8940   34.9910   61.6850 C.ar    0  <0>0        0.0130
      6  C7        11.0210   36.3330   61.8170 C.ar    0  <0>0        0.0370
      7  S1         9.5370   36.9610   61.0520 S.2     0  <0>0       -0.0690
      8  C8         8.7950   35.4210   60.5820 C.ar    0  <0>0        0.0987
      9  N2         7.6370   35.0690   59.9460 N.ar    0  <0>0       -0.2715
     10  C9         7.3470   33.7720   59.7210 C.ar    0  <0>0        0.3344
     11  O2         6.3140   33.4830   59.1490 O.2     0  <0>0       -0.2462
     12  C10        6.7080   36.1090   59.4980 C.3     0  <0>0        0.1385
     13  C11        6.9130   36.3680   58.0280 C.ar    0  <0>0        0.0111
     14  C16        5.8470   36.2640   57.1530 C.ar    0  <0>0        0.0555
     15  C15        6.0350   36.5060   55.8030 C.ar    0  <0>0        0.0111
     16 Cl          4.2730   35.8370   57.7470 Cl      0  <0>0       -0.0825
     17  C14        7.2900   36.8410   55.3300 C.ar    0  <0>0        0.0008
     18  C13        8.3560   36.9390   56.2050 C.ar    0  <0>0       -0.0002
     19  C12        8.1670   36.7020   57.5540 C.ar    0  <0>0       -0.0016
     20  C3         7.8080   31.4000   59.8610 C.3     0  <0>0        0.1136
     21  C2         8.2440   31.0170   58.4450 C.3     0  <0>0        0.0247
     22  C1         7.2390   30.0290   57.8510 C.3     0  <0>0        0.0021
     23  C17       11.9420   34.0790   62.2030 C.ar    0  <0>0        0.0007
     24  C22       11.5870   32.9680   62.9660 C.ar    0  <0>0        0.0000
     25  C21       12.5670   32.1200   63.4410 C.ar    0  <0>0        0.0000
     26  C20       13.8990   32.3770   63.1700 C.ar    0  <0>0        0.0000
     27  C19       14.2570   33.4810   62.4180 C.ar    0  <0>0        0.0000
     28  C18       13.2860   34.3340   61.9330 C.ar    0  <0>0        0.0000
@<TRIPOS>BOND
     1    17    15   ar
     2    17    18   ar
     3    15    14   ar
     4    18    19   ar
     5    14    16    1
     6    14    13   ar
     7    19    13   ar
     8    22    21    1
     9    13    12    1
    10    21    20    1
    11    11    10    2
    12    12     9    1
    13    10     9   ar
    14    10     1   ar
    15    20     1    1
    16     9     8   ar
    17     1     2   ar
    18     8     4   ar
    19     8     7   ar
    20     2     4   ar
    21     2     3    2
    22     4     5   ar
    23     7     6   ar
    24     5     6   ar
    25     5    23    1
    26    28    23   ar
    27    28    27   ar
    28    23    24   ar
    29    27    26   ar
    30    24    25   ar
    31    26    25   ar
