@<TRIPOS>MOLECULE
ZINC10025152_replica-1.pdb
 21 23 0 0 0
SMALL
GASTEIGER

@<TRIPOS>ATOM
      1  C8         8.0070   35.9620   56.7050 C.2     0  <0>0        0.2000
      2  O1         8.5030   36.3500   55.6650 O.2     0  <0>0       -0.2864
      3  C5         6.8280   35.0730   56.6730 C.ar    0  <0>0        0.0583
      4  C4         5.6420   35.4700   57.2830 C.ar    0  <0>0        0.0080
      5  C3         4.5340   34.5980   57.2370 C.ar    0  <0>0        0.0395
      6  C2         3.1970   34.7490   57.7770 C.ar    0  <0>0        0.0692
      7  C7         4.7210   33.3670   56.5600 C.ar    0  <0>0        0.1293
      8  C1         2.8230   36.0010   58.5290 C.3     0  <0>0        0.0528
      9  N2         2.3240   33.8040   57.6180 N.ar    0  <0>0       -0.2120
     10  S1         3.1340   32.5920   56.7280 S.2     0  <0>0        0.0320
     11  N1         5.8610   33.0310   55.9960 N.ar    0  <0>0       -0.2357
     12  C6         6.9060   33.8310   56.0280 C.ar    0  <0>0        0.1026
     13  C9         8.5800   36.3800   57.9980 C.ar    0  <0>0        0.0731
     14  C14        8.3750   37.6850   58.4710 C.ar    0  <0>0        0.1367
     15  C13        8.9160   38.0680   59.6880 C.ar    0  <0>0        0.0372
     16  C12        9.6540   37.1670   60.4310 C.ar    0  <0>0        0.0098
     17  C11        9.8600   35.8760   59.9680 C.ar    0  <0>0        0.0349
     18  C10        9.3240   35.4780   58.7620 C.ar    0  <0>0        0.0129
     19 Br         10.8740   34.6570   60.9970 Br      0  <0>0       -0.0490
     20  O2         7.6490   38.5680   57.7400 O.3     0  <0>0       -0.5054
     21  H9         6.7230   38.6360   58.0100 H       0  <0>0        0.2922
@<TRIPOS>BOND
     1     2     1    2
     2    11    12   ar
     3    11     7   ar
     4    12     3   ar
     5     7    10   ar
     6     7     5   ar
     7     3     1    1
     8     3     4   ar
     9     1    13    1
    10    10     9   ar
    11     5     4   ar
    12     5     6   ar
    13     9     6   ar
    14    20    21    1
    15    20    14    1
    16     6     8    1
    17    13    14   ar
    18    13    18   ar
    19    14    15   ar
    20    18    17   ar
    21    15    16   ar
    22    17    16   ar
    23    17    19    1
