@<TRIPOS>MOLECULE
ZINC59011110_replica-1.pdb
 22 22 0 0 0
SMALL
GASTEIGER

@<TRIPOS>ATOM
      1  N1         6.7840   35.3810   57.3270 N.am    0  <0>0       -0.3024
      2  C9         8.0490   35.8420   57.2690 C.2     0  <0>0        0.2474
      3  O1         8.5330   36.1600   56.2000 O.2     0  <0>0       -0.2701
      4  H18        6.3990   35.1280   58.1800 H       0  <0>0        0.1497
      5  C10        8.8490   35.9630   58.5070 C.ar    0  <0>0        0.0758
      6  C15        8.7930   37.1350   59.2650 C.ar    0  <0>0        0.1480
      7  C14        9.5370   37.2390   60.4220 C.ar    0  <0>0        0.0356
      8  C13       10.3460   36.1910   60.8260 C.ar    0  <0>0        0.0593
      9  C12       10.4100   35.0280   60.0750 C.ar    0  <0>0        0.0116
     10 Cl         11.2840   36.3330   62.2800 Cl      0  <0>0       -0.0822
     11  C11        9.6660   34.9090   58.9190 C.ar    0  <0>0        0.0070
     12  N2         7.9330   38.2580   58.8310 N.pl3   0  <0>0        0.0578
     13  O2         6.8600   38.4370   59.3590 O.2     0  <0>0       -0.1261
     14  O3         8.3040   38.9980   57.9500 O.2     0  <0>0       -0.1261
     15  C2         5.9930   35.2610   56.1000 C.3     0  <0>0        0.0719
     16  C1         5.5080   33.8190   55.9450 C.3     0  <0>0        0.0213
     17  C3         4.7870   36.2000   56.1790 C.3     0  <0>0        0.0196
     18  C4         3.5760   35.4330   56.7120 C.3     0  <0>0        0.0017
     19  C5         3.2330   35.9340   58.1160 C.3     0  <0>0        0.0001
     20  C6         1.7350   35.7550   58.3700 C.3     0  <0>0        0.0000
     21  C7         0.9910   35.7290   57.0350 C.3     0  <0>0        0.0000
     22  C8         1.4980   34.4380   59.1120 C.3     0  <0>0        0.0000
@<TRIPOS>BOND
     1    16    15    1
     2    15    17    1
     3    15     1    1
     4    17    18    1
     5     3     2    2
     6    18    19    1
     7    21    20    1
     8     2     1   am
     9     2     5    1
    10     1     4    1
    11    14    12    2
    12    19    20    1
    13    20    22    1
    14     5    11   ar
    15     5     6   ar
    16    12     6    1
    17    12    13    2
    18    11     9   ar
    19     6     7   ar
    20     9     8   ar
    21     7     8   ar
    22     8    10    1
