@<TRIPOS>MOLECULE
ZINC40263888_replica-1.pdb
 22 23 0 0 0
SMALL
GASTEIGER

@<TRIPOS>ATOM
      1  C10        8.3380   37.7680   58.8290 C.3     0  <0>0        0.1550
      2  C7         7.0110   37.1210   58.5280 C.ar    0  <0>0        0.0084
      3  C6         6.7070   36.7340   57.2370 C.ar    0  <0>0       -0.0019
      4  C5         5.4890   36.1400   56.9610 C.ar    0  <0>0       -0.0045
      5  C4         4.5770   35.9310   57.9780 C.ar    0  <0>0       -0.0225
      6  C9         4.8790   36.3220   59.2690 C.ar    0  <0>0       -0.0045
      7  C8         6.0980   36.9130   59.5450 C.ar    0  <0>0       -0.0019
      8  C2         3.2500   35.2830   57.6780 C.3     0  <0>0        0.0224
      9  C1         2.1590   35.9390   58.5260 C.3     0  <0>0        0.0047
     10  C3         2.9200   35.4610   56.1940 C.3     0  <0>0        0.0047
     11  C11        9.2010   36.8090   59.6090 C.ar    0  <0>0        0.0086
     12  C16        9.6290   37.1430   60.8800 C.ar    0  <0>0        0.0015
     13  C15       10.4150   36.2620   61.5980 C.ar    0  <0>0        0.0369
     14  C14       10.7840   35.0480   61.0380 C.ar    0  <0>0        0.1443
     15  C13       10.3570   34.7180   59.7600 C.ar    0  <0>0        0.0369
     16  C12        9.5660   35.6000   59.0480 C.ar    0  <0>0        0.0015
     17  O1        11.5600   34.1820   61.7410 O.3     0  <0>0       -0.4236
     18  C17       12.7430   34.7120   62.3410 C.3     0  <0>0        0.5087
     19  F1        12.7290   34.4450   63.7150 F       0  <0>0       -0.1550
     20  F2        13.8680   34.1140   61.7620 F       0  <0>0       -0.1550
     21  O2         8.1270   38.9530   59.6000 O.3     0  <0>0       -0.3756
     22  H18        8.9190   39.2760   60.0490 H       0  <0>0        0.2112
@<TRIPOS>BOND
     1    10     8    1
     2     4     3   ar
     3     4     5   ar
     4     3     2   ar
     5     8     5    1
     6     8     9    1
     7     5     6   ar
     8     2     1    1
     9     2     7   ar
    10     1    21    1
    11     1    11    1
    12    16    11   ar
    13    16    15   ar
    14     6     7   ar
    15    21    22    1
    16    11    12   ar
    17    15    14   ar
    18    12    13   ar
    19    14    13   ar
    20    14    17    1
    21    17    18    1
    22    20    18    1
    23    18    19    1
