@<TRIPOS>MOLECULE
ZINC51635866_replica-1.pdb
 22 24 0 0 0
SMALL
GASTEIGER

@<TRIPOS>ATOM
      1  C11        0.0120   31.4310   57.7530 C.ar    0  <0>0        0.0454
      2  C12        0.3460   31.2320   59.0880 C.ar    0  <0>0        0.0166
      3  C13        0.7490   32.2960   59.8710 C.ar    0  <0>0        0.0316
      4  C14        0.8240   33.5680   59.3320 C.ar    0  <0>0        0.1497
      5  C15        0.4910   33.7770   57.9900 C.ar    0  <0>0        0.0970
      6  C16        0.0890   32.6980   57.2000 C.ar    0  <0>0        0.0268
      7  C17        0.5670   35.0920   57.4270 C.1     0  <0>0        0.1027
      8  N2         0.6280   36.1350   56.9810 N.1     0  <0>0       -0.1908
      9  F2         1.2180   34.6060   60.1010 F       0  <0>0       -0.2035
     10  N1        -0.3950   30.3480   56.9660 N.pl3   0  <0>0       -0.3340
     11  H11       -0.3040   29.4430   57.3030 H       0  <0>0        0.1468
     12  C9        -0.9570   30.5810   55.6340 C.3     0  <0>0        0.0697
     13  C8        -0.0370   30.1280   54.4880 C.3     0  <0>0        0.0239
     14  C7        -1.3020   29.6120   53.7820 C.3     0  <0>0        0.0257
     15  C10       -1.9350   29.4860   55.1770 C.3     0  <0>0        0.0239
     16  C3        -1.1080   28.2900   53.0850 C.ar    0  <0>0       -0.0202
     17  C2        -1.6190   28.0960   51.8160 C.ar    0  <0>0       -0.0041
     18  C1        -1.4420   26.8830   51.1760 C.ar    0  <0>0        0.0020
     19  C6        -0.7530   25.8640   51.8040 C.ar    0  <0>0        0.0296
     20  C5        -0.2410   26.0570   53.0760 C.ar    0  <0>0        0.1398
     21  C4        -0.4180   27.2710   53.7160 C.ar    0  <0>0        0.0254
     22  F1         0.4340   25.0610   53.6910 F       0  <0>0       -0.2042
@<TRIPOS>BOND
     1    18    19   ar
     2    18    17   ar
     3    19    20   ar
     4    17    16   ar
     5    20    22    1
     6    20    21   ar
     7    16    21   ar
     8    16    14    1
     9    14    13    1
    10    14    15    1
    11    13    12    1
    12    15    12    1
    13    12    10    1
    14    10    11    1
    15    10     1    1
    16     8     7    3
    17     6     1   ar
    18     6     5   ar
    19     7     5    1
    20     1     2   ar
    21     5     4   ar
    22     2     3   ar
    23     4     3   ar
    24     4     9    1
