@<TRIPOS>MOLECULE
ZINC13278343_replica-1.pdb
 25 27 0 0 0
SMALL
GASTEIGER

@<TRIPOS>ATOM
      1  C9         6.0900   35.6070   55.4810 C.ar    0  <0>0        0.1609
      2  N1         5.6170   34.5290   54.8840 N.ar    0  <0>0       -0.1332
      3  N2         4.2690   34.2560   54.9330 N.ar    0  <0>0       -0.1252
      4  C10        3.4570   35.0720   55.5760 C.ar    0  <0>0        0.1829
      5  S2         4.5970   36.3170   56.1590 S.2     0  <0>0       -0.0245
      6  S1         7.7490   36.1920   55.5760 S.3     0  <0>0       -0.0818
      7  C8         8.5830   34.9790   56.6360 C.3     0  <0>0        0.0904
      8  C3         8.9490   35.6260   57.9470 C.ar    0  <0>0       -0.0107
      9  C2         8.5800   36.9350   58.1970 C.ar    0  <0>0       -0.0034
     10  C1         8.9120   37.5370   59.3990 C.ar    0  <0>0       -0.0001
     11  C6         9.6120   36.8340   60.3550 C.ar    0  <0>0        0.0066
     12  C5         9.9890   35.5110   60.1090 C.ar    0  <0>0        0.0795
     13  C4         9.6460   34.9090   58.8970 C.ar    0  <0>0        0.0032
     14  C7        10.7390   34.7510   61.1290 C.2     0  <0>0        0.3877
     15  O1        11.6830   35.2620   61.6970 O.co2   0  <0>0       -0.2406
     16  O2        10.3760   33.4880   61.4290 O.co2   0  <0>0       -0.2406
     17  N3         2.0800   34.9890   55.7490 N.pl3   0  <0>0       -0.3112
     18  H7         1.4860   35.4540   55.1400 H       0  <0>0        0.1487
     19  C11        1.5270   34.1980   56.8520 C.3     0  <0>0        0.0939
     20  C12        1.4210   35.0730   58.1030 C.3     0  <0>0        0.0541
     21  C13        1.1900   34.1990   59.3080 C.ar    0  <0>0        0.0090
     22  S3         1.7750   32.5420   59.6250 S.2     0  <0>0       -0.0907
     23  C16        1.0380   32.3180   61.2360 C.ar    0  <0>0        0.0351
     24  C15        0.4070   33.5030   61.4220 C.ar    0  <0>0        0.0072
     25  C14        0.4840   34.4660   60.4340 C.ar    0  <0>0        0.0027
@<TRIPOS>BOND
     1     2     3   ar
     2     2     1   ar
     3     3     4   ar
     4    18    17    1
     5     1     6    1
     6     1     5   ar
     7     4    17    1
     8     4     5   ar
     9     6     7    1
    10    17    19    1
    11     7     8    1
    12    19    20    1
    13     8     9   ar
    14     8    13   ar
    15    20    21    1
    16     9    10   ar
    17    13    12   ar
    18    21    22   ar
    19    21    25   ar
    20    10    11   ar
    21    22    23   ar
    22    12    11   ar
    23    12    14    1
    24    25    24   ar
    25    14    16   ar
    26    14    15   ar
    27    23    24   ar
