@<TRIPOS>MOLECULE
ZINC30780836_replica-1.pdb
 27 30 0 0 0
SMALL
GASTEIGER

@<TRIPOS>ATOM
      1  C10        7.0160   35.5260   57.9160 C.3     0  <0>0        0.0975
      2  C11        8.0890   34.5860   57.3640 C.3     0  <0>0        0.0538
      3  C12        7.4510   33.5420   56.4530 C.3     0  <0>0        0.0073
      4  C13        6.5460   32.6180   57.2770 C.3     0  <0>0        0.0322
      5  C14        7.3760   31.9910   58.4030 C.3     0  <0>0        0.1425
      6  O3         7.9270   33.0300   59.2130 O.3     0  <0>0       -0.3518
      7  C15        8.8160   33.9130   58.5250 C.3     0  <0>0        0.1404
      8  C16        9.3060   34.9560   59.4980 C.ar    0  <0>0        0.0186
      9  C17       10.3430   34.6350   60.3570 C.ar    0  <0>0        0.0107
     10  C18       10.8110   35.5690   61.2630 C.ar    0  <0>0        0.0575
     11  C19       10.2450   36.8300   61.3160 C.ar    0  <0>0        0.0126
     12  C20        9.2110   37.1580   60.4600 C.ar    0  <0>0        0.0149
     13  C21        8.7400   36.2210   59.5470 C.ar    0  <0>0        0.0431
     14  N1         7.6990   36.5790   58.6820 N.pl3   0  <0>0       -0.3306
     15 Cl         12.1120   35.1580   62.3370 Cl      0  <0>0       -0.0823
     16  H24        7.3890   37.6290   58.5720 H       0  <0>0        0.1471
     17  C4         6.0800   34.7630   58.8160 C.ar    0  <0>0        0.0325
     18  C3         4.8400   34.3600   58.3460 C.ar    0  <0>0        0.1697
     19  C8         3.9770   33.6560   59.1800 C.ar    0  <0>0        0.1721
     20  C7         4.3620   33.3600   60.4780 C.ar    0  <0>0        0.0400
     21  C6         5.5990   33.7650   60.9410 C.ar    0  <0>0        0.0030
     22  C5         6.4590   34.4610   60.1110 C.ar    0  <0>0        0.0005
     23  O1         4.4670   34.6530   57.0720 O.3     0  <0>0       -0.4727
     24  C2         3.7020   35.8450   56.8770 C.3     0  <0>0        0.2057
     25  C1         4.0510   36.4590   55.5190 C.3     0  <0>0        0.0512
     26  O2         2.7600   33.2570   58.7230 O.3     0  <0>0       -0.4684
     27  C9         1.6110   33.8440   59.3370 C.3     0  <0>0        0.2526
@<TRIPOS>BOND
     1    25    24    1
     2     3     4    1
     3     3     2    1
     4    24    23    1
     5    23    18    1
     6     4     5    1
     7     2     1    1
     8     2     7    1
     9     1    14    1
    10     1    17    1
    11    18    17   ar
    12    18    19   ar
    13     5     6    1
    14     7     6    1
    15     7     8    1
    16    16    14    1
    17    14    13    1
    18    26    19    1
    19    26    27    1
    20    17    22   ar
    21    19    20   ar
    22     8    13   ar
    23     8     9   ar
    24    13    12   ar
    25    22    21   ar
    26     9    10   ar
    27    12    11   ar
    28    20    21   ar
    29    10    11   ar
    30    10    15    1
