@<TRIPOS>MOLECULE
ZINC13062790_replica-1.pdb
 23 25 0 0 0
SMALL
GASTEIGER

@<TRIPOS>ATOM
      1  C1        -1.1820   31.3580   54.8440 C.3     0  <0>0        0.0469
      2  C2        -0.9220   29.9410   54.3980 C.2     0  <0>0        0.0237
      3  C3        -0.2230   29.0870   55.2410 C.2     0  <0>0        0.0277
      4  C4         0.0280   27.7840   54.8420 C.2     0  <0>0        0.0898
      5  C5        -0.4570   27.3730   53.5780 C.2     0  <0>0        0.0164
      6  C6        -0.2510   26.0690   53.1060 C.2     0  <0>0       -0.0010
      7  C7        -0.7340   25.7120   51.8830 C.2     0  <0>0       -0.0005
      8  C8        -1.4320   26.6240   51.0970 C.2     0  <0>0       -0.0026
      9  C9        -1.6500   27.8980   51.5250 C.2     0  <0>0       -0.0025
     10  C10       -1.1660   28.3030   52.7820 C.3     0  <0>0        0.1158
     11  N1        -1.3670   29.5480   53.2270 N.pl3   0  <0>0       -0.3305
     12  H13       -1.9220   30.2500   52.5870 H       0  <0>0        0.1471
     13  N2         0.7280   26.9090   55.6600 N.pl3   0  <0>0       -0.0967
     14  S1         0.0380   26.3510   57.0580 S.O2    0  <0>0        0.0950
     15  O1         0.9110   26.7210   58.1170 O.2     0  <0>0       -0.1482
     16  O2        -1.3270   26.7450   57.0230 O.2     0  <0>0       -0.1482
     17  C11        0.0560   24.5910   56.9820 C.ar    0  <0>0        0.1543
     18  C16       -0.4230   23.8470   58.0470 C.ar    0  <0>0        0.1589
     19  C15       -0.4070   22.4640   57.9860 C.ar    0  <0>0        0.0310
     20  F1        -0.9050   24.4700   59.1440 F       0  <0>0       -0.2027
     21  C14        0.0870   21.8270   56.8640 C.ar    0  <0>0        0.0024
     22  C13        0.5660   22.5720   55.8010 C.ar    0  <0>0        0.0015
     23  C12        0.5450   23.9520   55.8570 C.ar    0  <0>0        0.0226
@<TRIPOS>BOND
     1     8     9    2
     2     8     7    1
     3     9    10    1
     4     7     6    2
     5    12    11    1
     6    10    11    1
     7    10     5    1
     8     6     5    1
     9    11     2    1
    10     5     4    2
    11     2     1    1
    12     2     3    2
    13     4     3    1
    14     4    13    1
    15    13    14    1
    16    22    23   ar
    17    22    21   ar
    18    23    17   ar
    19    21    19   ar
    20    17    14    1
    21    17    18   ar
    22    16    14    2
    23    14    15    2
    24    19    18   ar
    25    18    20    1
