@<TRIPOS>MOLECULE
ZINC20932511_replica-1.pdb
 26 26 0 0 0
SMALL
GASTEIGER

@<TRIPOS>ATOM
      1  C4         2.6940   34.6250   59.1440 C.ar    0  <0>0        0.1783
      2  C5         3.9170   34.4130   59.7720 C.ar    0  <0>0        0.1723
      3  C6         5.0730   34.9490   59.2290 C.ar    0  <0>0        0.0337
      4  C7         5.0090   35.7030   58.0720 C.ar    0  <0>0       -0.0400
      5  C8         3.7940   35.9140   57.4470 C.ar    0  <0>0        0.0036
      6  C9         2.6360   35.3770   57.9810 C.ar    0  <0>0        0.0711
      7 Br          0.9770   35.6680   57.1230 Br      0  <0>0       -0.0457
      8  C10        6.2680   36.2900   57.4860 C.3     0  <0>0       -0.0540
      9  N1         7.3640   36.1620   58.4540 N.4     0  <0>0        0.3890
     10  H12        6.9710   35.7710   59.4040 H       0  <0>0       -0.0838
     11  H35        8.1240   35.4690   58.0600 H       0  <0>0       -0.0838
     12  C11        7.9990   37.4620   58.7060 C.3     0  <0>0       -0.0455
     13  C12        8.4170   38.0920   57.3770 C.3     0  <0>0       -0.0215
     14  C13        7.0070   38.3850   59.4180 C.3     0  <0>0       -0.0215
     15  C14        9.2340   37.2660   59.5880 C.3     0  <0>0       -0.0195
     16  C15        9.4060   35.7780   59.9000 C.3     0  <0>0       -0.0019
     17  C16       10.6340   35.5810   60.7910 C.3     0  <0>0       -0.0001
     18  C17        8.1610   35.2620   60.6270 C.3     0  <0>0       -0.0001
     19  C18        9.5920   35.0010   58.5950 C.3     0  <0>0       -0.0001
     20  O2         3.9790   33.6760   60.9140 O.3     0  <0>0       -0.4724
     21  C19        5.0750   32.7690   61.0430 C.3     0  <0>0        0.2057
     22  C20        4.6710   31.3990   60.4930 C.3     0  <0>0        0.0512
     23  O1         1.5570   34.0960   59.6700 O.3     0  <0>0       -0.4719
     24  C3         1.2520   32.7420   59.3280 C.3     0  <0>0        0.2056
     25  C2         0.9410   31.9520   60.6010 C.3     0  <0>0        0.0473
     26  C1         0.6170   32.9240   61.7380 C.3     0  <0>0        0.0040
@<TRIPOS>BOND
     1     7     6    1
     2    13    12    1
     3     5     6   ar
     4     5     4   ar
     5     8     4    1
     6     8     9    1
     7     6     1   ar
     8    11     9    1
     9     4     3   ar
    10     9    12    1
    11     9    10    1
    12    19    16    1
    13    12    14    1
    14    12    15    1
    15     1    23    1
    16     1     2   ar
    17     3     2   ar
    18    24    23    1
    19    24    25    1
    20    15    16    1
    21     2    20    1
    22    16    18    1
    23    16    17    1
    24    22    21    1
    25    25    26    1
    26    20    21    1
