@<TRIPOS>MOLECULE
ZINC40228054_replica-1.pdb
 23 24 0 0 0
SMALL
GASTEIGER

@<TRIPOS>ATOM
      1  O1         8.1610   37.9900   58.1960 O.3     0  <0>0       -0.4754
      2  C3         8.8410   37.1330   58.9990 C.ar    0  <0>0        0.1386
      3  C2         9.1770   35.8670   58.5350 C.ar    0  <0>0        0.0370
      4  C1         9.8670   34.9950   59.3460 C.ar    0  <0>0        0.0049
      5  C6        10.2310   35.3850   60.6390 C.ar    0  <0>0        0.0198
      6  C5         9.8910   36.6600   61.1010 C.ar    0  <0>0        0.0049
      7  C4         9.2000   37.5260   60.2830 C.ar    0  <0>0        0.0370
      8  C7        10.9700   34.4550   61.5110 C.2     0  <0>0        0.0780
      9  S1        12.2730   35.0270   62.4630 S.2     0  <0>0       -0.0352
     10  N1        10.6190   33.1540   61.5590 N.am    0  <0>0       -0.3517
     11  H5         9.8810   32.8300   61.0200 H       0  <0>0        0.1428
     12  H6        11.1060   32.5430   62.1340 H       0  <0>0        0.1428
     13  C8         8.5900   38.0860   56.8370 C.3     0  <0>0        0.2080
     14  C9         7.4030   37.8320   55.9060 C.3     0  <0>0        0.0793
     15  C10        7.6520   36.5560   55.0990 C.3     0  <0>0        0.1459
     16  O2         6.7840   35.5200   55.5650 O.3     0  <0>0       -0.3561
     17  C11        5.6870   35.9910   56.3490 C.3     0  <0>0        0.1152
     18  C17        4.4510   35.7570   55.6170 C.3     0  <0>0        0.0296
     19  C16        3.2140   36.2980   56.3640 C.3     0  <0>0        0.0025
     20  C15        2.8270   35.3070   57.4290 C.3     0  <0>0        0.0001
     21  C14        3.4460   35.6420   58.7990 C.3     0  <0>0        0.0001
     22  C13        4.9140   36.0990   58.6960 C.3     0  <0>0        0.0025
     23  C12        5.7060   35.2770   57.7150 C.3     0  <0>0        0.0296
@<TRIPOS>BOND
     1    15    16    1
     2    15    14    1
     3    16    17    1
     4    18    17    1
     5    18    19    1
     6    14    13    1
     7    17    23    1
     8    19    20    1
     9    13     1    1
    10    20    21    1
    11    23    22    1
    12     1     2    1
    13     3     2   ar
    14     3     4   ar
    15    22    21    1
    16     2     7   ar
    17     4     5   ar
    18     7     6   ar
    19     5     6   ar
    20     5     8    1
    21    11    10    1
    22     8    10    1
    23     8     9    2
    24    10    12    1
