@<TRIPOS>MOLECULE
ZINC19995190_replica-1.pdb
 22 23 0 0 0
SMALL
GASTEIGER

@<TRIPOS>ATOM
      1  C1        11.3720   36.4440   62.5160 C.3     0  <0>0        0.0261
      2  C2        11.2690   35.5120   61.3070 C.3     0  <0>0        0.0921
      3  C3        10.1860   36.0060   60.3820 C.ar    0  <0>0       -0.0016
      4  C8         9.7750   35.2240   59.3200 C.ar    0  <0>0        0.0344
      5  C7         8.7780   35.6800   58.4700 C.ar    0  <0>0        0.1440
      6  C6         8.1960   36.9200   58.6880 C.ar    0  <0>0        0.0371
      7  C5         8.6110   37.6990   59.7520 C.ar    0  <0>0        0.0028
      8  C4         9.6040   37.2420   60.5990 C.ar    0  <0>0       -0.0025
      9  O1         8.3760   34.9150   57.4210 O.3     0  <0>0       -0.4236
     10  C9         7.8050   35.5970   56.3020 C.3     0  <0>0        0.5087
     11  F1         8.8040   36.3150   55.6360 F       0  <0>0       -0.1550
     12  F2         7.2390   34.6640   55.4270 F       0  <0>0       -0.1550
     13  N1        10.9420   34.1570   61.7610 N.pl3   0  <0>0       -0.3288
     14  H10        9.9250   33.7620   61.6250 H       0  <0>0        0.1471
     15  C10       11.9240   33.3680   62.3660 C.ar    0  <0>0        0.0749
     16  C15       11.5750   32.1690   62.9780 C.ar    0  <0>0        0.1533
     17  C14       12.5490   31.3890   63.5750 C.ar    0  <0>0        0.0332
     18  F3        10.2850   31.7660   62.9890 F       0  <0>0       -0.2029
     19  C13       13.8690   31.8000   63.5640 C.ar    0  <0>0        0.0320
     20  C12       14.2210   32.9930   62.9540 C.ar    0  <0>0        0.1415
     21  C11       13.2520   33.7760   62.3510 C.ar    0  <0>0        0.0462
     22  F4        15.5110   33.3910   62.9450 F       0  <0>0       -0.2041
@<TRIPOS>BOND
     1    12    10    1
     2    11    10    1
     3    10     9    1
     4     9     5    1
     5     5     6   ar
     6     5     4   ar
     7     6     7   ar
     8     4     3   ar
     9     7     8   ar
    10     3     8   ar
    11     3     2    1
    12     2    13    1
    13     2     1    1
    14    14    13    1
    15    13    15    1
    16    21    15   ar
    17    21    20   ar
    18    15    16   ar
    19    22    20    1
    20    20    19   ar
    21    16    18    1
    22    16    17   ar
    23    19    17   ar
