@<TRIPOS>MOLECULE
ZINC14850697_replica-1.pdb
 27 29 0 0 0
SMALL
GASTEIGER

@<TRIPOS>ATOM
      1  C11        0.6900   31.8150   56.3230 C.3     0  <0>0        0.1121
      2  C10       -0.0700   30.8850   55.4130 C.2     0  <0>0        0.2943
      3  N1         0.3690   29.7560   54.9130 N.2     0  <0>0       -0.3127
      4  C9        -0.6480   29.2730   54.1630 C.1     0  <0>0        0.1268
      5  N2        -1.6330   30.1270   54.2510 N.2     0  <0>0       -0.0072
      6  O1        -1.3190   31.0540   54.9680 O.2     0  <0>0       -0.3156
      7  C6        -0.6440   28.0080   53.3850 C.ar    0  <0>0        0.0770
      8  C5         0.0380   26.8930   53.8680 C.ar    0  <0>0        0.0108
      9  C4         0.0370   25.7200   53.1400 C.ar    0  <0>0       -0.0035
     10  C3        -0.6380   25.6500   51.9350 C.ar    0  <0>0       -0.0221
     11  C8        -1.3160   26.7550   51.4520 C.ar    0  <0>0       -0.0035
     12  C7        -1.3270   27.9310   52.1740 C.ar    0  <0>0        0.0108
     13  C2        -0.6350   24.3660   51.1460 C.3     0  <0>0        0.0264
     14  C1        -0.3060   23.1960   52.0750 C.3     0  <0>0        0.0050
     15  C12       -0.2800   32.4680   57.3100 C.3     0  <0>0        0.0961
     16  C13        0.2160   33.8460   57.6650 C.2     0  <0>0        0.2233
     17  O2         0.1730   34.2290   58.8140 O.2     0  <0>0       -0.2751
     18  N3         0.7070   34.6530   56.7030 N.am    0  <0>0       -0.3004
     19  H14        0.7410   34.3470   55.7830 H       0  <0>0        0.1497
     20  C14        1.1890   35.9930   57.0460 C.3     0  <0>0        0.1163
     21  C15        2.6900   35.9680   57.1810 C.ar    0  <0>0       -0.0026
     22  C20        3.4860   36.0030   56.0520 C.ar    0  <0>0       -0.0029
     23  C19        4.8620   35.9800   56.1750 C.ar    0  <0>0       -0.0045
     24  C18        5.4430   35.9220   57.4280 C.ar    0  <0>0       -0.0219
     25  C17        4.6470   35.8870   58.5580 C.ar    0  <0>0       -0.0045
     26  C21        6.9440   35.8970   57.5620 C.3     0  <0>0        0.0310
     27  C16        3.2710   35.9150   58.4340 C.ar    0  <0>0       -0.0029
@<TRIPOS>BOND
     1    13    10    1
     2    13    14    1
     3    11    10   ar
     4    11    12   ar
     5    10     9   ar
     6    12     7   ar
     7     9     8   ar
     8     7     8   ar
     9     7     4    1
    10     4     5    2
    11     4     3    2
    12     5     6    1
    13     3     2    2
    14     6     2    1
    15     2     1    1
    16    19    18    1
    17    22    23   ar
    18    22    21   ar
    19    23    24   ar
    20     1    15    1
    21    18    20    1
    22    18    16   am
    23    20    21    1
    24    21    27   ar
    25    15    16    1
    26    24    26    1
    27    24    25   ar
    28    16    17    2
    29    27    25   ar
