@<TRIPOS>MOLECULE
ZINC40004399_replica-1.pdb
 29 32 0 0 0
SMALL
GASTEIGER

@<TRIPOS>ATOM
      1  C1         5.8240   36.7690   58.7090 C.3     0  <0>0        0.0510
      2  C2         6.0340   35.4900   57.9410 C.2     0  <0>0        0.0555
      3  C3         7.2270   35.2390   57.3840 C.2     0  <0>0        0.0890
      4  C4         7.4280   34.0340   56.6600 C.1     0  <0>0        0.2039
      5  O1         8.5090   33.7870   56.1460 O.2     0  <0>0       -0.2095
      6  N1         6.4060   33.1730   56.5550 N.2     0  <0>0       -0.3075
      7  C5         5.2480   33.4360   57.1070 C.ar    0  <0>0        0.2453
      8  N2         4.9900   34.5770   57.8220 N.ar    0  <0>0       -0.2463
      9  C6         3.7660   34.7380   58.3480 C.ar    0  <0>0        0.2728
     10  O2         3.4850   35.7360   58.9870 O.2     0  <0>0       -0.2660
     11  C7         2.7740   33.6790   58.1300 C.ar    0  <0>0        0.0897
     12  C8         1.4830   33.6040   58.5510 C.2     0  <0>0        0.0114
     13  S2         3.7200   32.5230   57.1500 S.2     0  <0>0       -0.0313
     14  C9         0.7210   32.3670   58.3570 C.ar    0  <0>0        0.0007
     15  C14        0.8000   31.3360   59.3030 C.ar    0  <0>0        0.0005
     16  C13        0.0850   30.1870   59.1200 C.ar    0  <0>0        0.0061
     17  C12       -0.7160   30.0360   57.9900 C.ar    0  <0>0        0.0252
     18  C11       -0.7940   31.0550   57.0440 C.ar    0  <0>0        0.0061
     19  C10       -0.0860   32.2090   57.2210 C.ar    0  <0>0        0.0005
     20  S1        -1.6330   28.5490   57.7560 S.3     0  <0>0       -0.1127
     21  C15       -2.8280   28.9710   56.4580 C.3     0  <0>0        0.0742
     22  C16        8.3510   36.2330   57.5250 C.3     0  <0>0        0.0675
     23  C17        9.0750   35.9900   58.8250 C.ar    0  <0>0       -0.0064
     24  C22        9.2680   37.0320   59.7140 C.ar    0  <0>0        0.0540
     25  C21        9.9270   36.8070   60.9100 C.ar    0  <0>0        0.0111
     26 Cl          8.6770   38.6190   59.3340 Cl      0  <0>0       -0.0826
     27  C20       10.4030   35.5450   61.2090 C.ar    0  <0>0        0.0008
     28  C19       10.2150   34.5040   60.3170 C.ar    0  <0>0       -0.0003
     29  C18        9.5510   34.7280   59.1260 C.ar    0  <0>0       -0.0031
@<TRIPOS>BOND
     1     5     4    2
     2    21    20    1
     3     6     4    2
     4     6     7    2
     5     4     3    1
     6    18    19   ar
     7    18    17   ar
     8     7    13   ar
     9     7     8   ar
    10    13    11   ar
    11    19    14   ar
    12     3    22    1
    13     3     2    2
    14    22    23    1
    15    20    17    1
    16     8     2    1
    17     8     9   ar
    18     2     1    1
    19    17    16   ar
    20    11     9   ar
    21    11    12    2
    22     9    10    2
    23    14    12    1
    24    14    15   ar
    25    23    29   ar
    26    23    24   ar
    27    16    15   ar
    28    29    28   ar
    29    26    24    1
    30    24    25   ar
    31    28    27   ar
    32    25    27   ar
