@<TRIPOS>MOLECULE
ZINC59967788_replica-1.pdb
 24 24 0 0 0
SMALL
GASTEIGER

@<TRIPOS>ATOM
      1  C7        11.0240   34.4920   61.2300 C.2     0  <0>0        0.0577
      2  C8        10.6030   35.7720   61.1500 C.2     0  <0>0        0.0047
      3  C6        11.8130   34.0520   62.3780 C.2     0  <0>0        0.2463
      4  N1        12.3910   32.8340   62.3730 N.am    0  <0>0       -0.2932
      5  H10       12.2820   32.2490   61.6070 H       0  <0>0        0.1502
      6  O3        11.9500   34.7860   63.3400 O.2     0  <0>0       -0.2701
      7  C4        13.1820   32.3940   63.5240 C.3     0  <0>0        0.1717
      8  C5        13.2220   30.8660   63.5630 C.3     0  <0>0        0.0334
      9  C3        14.5850   32.9310   63.4040 C.2     0  <0>0        0.3350
     10  O2        14.9740   33.3760   62.3490 O.2     0  <0>0       -0.2483
     11  O1        15.4030   32.9150   64.4680 O.3     0  <0>0       -0.4474
     12  C2        15.7820   34.1800   65.0140 C.3     0  <0>0        0.2086
     13  C1        17.2800   34.4020   64.7970 C.3     0  <0>0        0.0513
     14  C9         9.8090   36.2140   59.9950 C.ar    0  <0>0        0.0002
     15  C14        9.6590   35.3740   58.8850 C.ar    0  <0>0        0.0005
     16  C13        8.9150   35.7850   57.8150 C.ar    0  <0>0        0.0064
     17  C12        8.3170   37.0440   57.8230 C.ar    0  <0>0        0.0328
     18  C11        8.4700   37.8850   58.9240 C.ar    0  <0>0        0.0064
     19  C10        9.2070   37.4770   59.9990 C.ar    0  <0>0        0.0005
     20  S1         7.3650   37.5730   56.4380 S.3     0  <0>0       -0.0144
     21  C15        5.9640   36.4210   56.4040 C.3     0  <0>0        0.4477
     22  F1         6.3580   35.2250   55.7930 F       0  <0>0       -0.1600
     23  F2         5.5430   36.1580   57.7120 F       0  <0>0       -0.1600
     24  F3         4.9100   36.9880   55.6800 F       0  <0>0       -0.1600
@<TRIPOS>BOND
     1    24    21    1
     2    22    21    1
     3    21    20    1
     4    21    23    1
     5    20    17    1
     6    16    17   ar
     7    16    15   ar
     8    17    18   ar
     9    15    14   ar
    10    18    19   ar
    11    14    19   ar
    12    14     2    1
    13     2     1    2
    14     1     3    1
    15     5     4    1
    16    10     9    2
    17     4     3   am
    18     4     7    1
    19     3     6    2
    20     9     7    1
    21     9    11    1
    22     7     8    1
    23    11    12    1
    24    13    12    1
