@<TRIPOS>MOLECULE
ZINC05217973_replica-1.pdb
 24 25 0 0 0
SMALL
GASTEIGER

@<TRIPOS>ATOM
      1  C9        10.5740   35.7880   61.1580 C.2     0  <0>0        0.0122
      2  C10        9.8390   36.2060   60.1580 C.2     0  <0>0       -0.0443
      3  C11        9.7250   35.3730   58.9070 C.3     0  <0>0        0.0261
      4  C12        9.1090   37.5210   60.2560 C.3     0  <0>0        0.0265
      5  C13        7.7250   37.2910   60.8670 C.3     0  <0>0        0.0297
      6  C14        6.6930   37.2480   59.7710 C.2     0  <0>0       -0.0343
      7  C15        5.9910   36.1590   59.5740 C.2     0  <0>0       -0.0481
      8  C16        6.1360   34.9890   60.5140 C.3     0  <0>0        0.0260
      9  C17        5.0400   36.0760   58.4090 C.3     0  <0>0        0.0243
     10  C18        3.8320   35.2200   58.7960 C.3     0  <0>0        0.0363
     11  C19        2.5450   35.9460   58.4010 C.3     0  <0>0        0.1400
     12  O2         1.3900   35.7450   59.2190 O.3     0  <0>0       -0.3562
     13  C20        1.3570   35.0940   57.9470 C.3     0  <0>0        0.1177
     14  C21        0.4330   35.6740   56.8740 C.3     0  <0>0        0.0321
     15  C22        1.5380   33.5760   57.9180 C.3     0  <0>0        0.0321
     16  C8        11.4100   34.5430   61.0110 C.3     0  <0>0        0.2311
     17  O1        12.2900   34.4240   62.1300 O.3     0  <0>0       -0.4707
     18  C5        12.3660   33.2060   62.7280 C.ar    0  <0>0        0.1390
     19  C4        11.2190   32.4420   62.8950 C.ar    0  <0>0        0.0366
     20  C3        11.2980   31.2050   63.5050 C.ar    0  <0>0       -0.0011
     21  C2        12.5180   30.7270   63.9460 C.ar    0  <0>0       -0.0217
     22  C1        12.6010   29.3760   64.6100 C.3     0  <0>0        0.0310
     23  C7        13.6620   31.4860   63.7810 C.ar    0  <0>0       -0.0011
     24  C6        13.5890   32.7220   63.1670 C.ar    0  <0>0        0.0366
@<TRIPOS>BOND
     1    14    13    1
     2    15    13    1
     3    13    11    1
     4    13    12    1
     5    11    10    1
     6    11    12    1
     7     9    10    1
     8     9     7    1
     9     3     2    1
    10     7     6    2
    11     7     8    1
    12     6     5    1
    13     2     4    1
    14     2     1    2
    15     4     5    1
    16    16     1    1
    17    16    17    1
    18    17    18    1
    19    18    19   ar
    20    18    24   ar
    21    19    20   ar
    22    24    23   ar
    23    20    21   ar
    24    23    21   ar
    25    21    22    1
