@<TRIPOS>MOLECULE
ZINC43763494_replica-1.pdb
 24 25 0 0 0
SMALL
GASTEIGER

@<TRIPOS>ATOM
      1  C6         6.9560   35.6330   57.9330 C.2     0  <0>0       -0.0476
      2  C7         8.0990   36.2770   57.9210 C.2     0  <0>0       -0.0300
      3  C8         8.5530   37.1510   56.7890 C.3     0  <0>0        0.0257
      4  C9         7.7370   36.8480   55.5300 C.3     0  <0>0        0.0050
      5  C10        6.2490   36.8690   55.8970 C.3     0  <0>0        0.0047
      6  C11        5.9620   35.6730   56.8110 C.3     0  <0>0        0.0217
      7  C5         6.6270   34.7990   59.1440 C.3     0  <0>0        0.0328
      8  C4         6.0240   33.4650   58.6960 C.3     0  <0>0        0.1030
      9  C2         6.9810   32.3260   59.0550 C.3     0  <0>0        0.0109
     10  C1         8.0140   32.1580   57.9390 C.3     0  <0>0        0.0006
     11  C3         7.6960   32.6550   60.3670 C.3     0  <0>0        0.0006
     12  C18        4.7050   33.2520   59.3920 C.2     0  <0>0        0.3165
     13  O1         4.3320   32.1320   59.6470 O.2     0  <0>0       -0.2501
     14  O2         3.9450   34.3060   59.7280 O.3     0  <0>0       -0.4557
     15  C19        2.7900   34.5560   58.9260 C.3     0  <0>0        0.1363
     16  C20        2.7300   36.0430   58.5680 C.3     0  <0>0        0.0437
     17  C21        2.8700   33.7270   57.6420 C.3     0  <0>0        0.0437
     18  C22        1.5330   34.1680   59.7060 C.3     0  <0>0        0.0437
     19  C12        8.9910   36.1340   59.0910 C.ar    0  <0>0       -0.0046
     20  C17        8.9410   37.0680   60.1270 C.ar    0  <0>0       -0.0003
     21  C16        9.7730   36.9260   61.2200 C.ar    0  <0>0       -0.0000
     22  C15       10.6620   35.8680   61.2830 C.ar    0  <0>0       -0.0000
     23  C14       10.7200   34.9430   60.2560 C.ar    0  <0>0       -0.0000
     24  C13        9.8890   35.0700   59.1610 C.ar    0  <0>0       -0.0003
@<TRIPOS>BOND
     1     4     5    1
     2     4     3    1
     3     5     6    1
     4     3     2    1
     5     6     1    1
     6    17    15    1
     7     2     1    2
     8     2    19    1
     9     1     7    1
    10    10     9    1
    11    16    15    1
    12     8     9    1
    13     8     7    1
    14     8    12    1
    15    15    18    1
    16    15    14    1
    17     9    11    1
    18    19    24   ar
    19    19    20   ar
    20    24    23   ar
    21    12    13    2
    22    12    14    1
    23    20    21   ar
    24    23    22   ar
    25    21    22   ar
