@<TRIPOS>MOLECULE
ZINC58775208_replica-1.pdb
 33 35 0 0 0
SMALL
GASTEIGER

@<TRIPOS>ATOM
      1  N1         6.8940   36.5260   58.5780 N.am    0  <0>0       -0.2972
      2  C16        7.7840   37.4960   58.2890 C.2     0  <0>0        0.2430
      3  O2         8.0830   37.7210   57.1350 O.2     0  <0>0       -0.2732
      4  H16        6.6550   36.3470   59.5010 H       0  <0>0        0.1500
      5  C9         6.2890   35.7410   57.4980 C.3     0  <0>0        0.1169
      6  C6         4.8100   35.6040   57.7470 C.ar    0  <0>0       -0.0001
      7  C5         3.9060   36.0390   56.7950 C.ar    0  <0>0        0.0008
      8  C4         2.5500   35.9150   57.0190 C.ar    0  <0>0        0.0366
      9  C3         2.0920   35.3510   58.2020 C.ar    0  <0>0        0.1385
     10  C8         3.0000   34.9200   59.1580 C.ar    0  <0>0        0.0366
     11  C7         4.3560   35.0420   58.9260 C.ar    0  <0>0        0.0008
     12  O1         0.7570   35.2270   58.4260 O.3     0  <0>0       -0.4755
     13  C2         0.3050   33.9900   58.9800 C.3     0  <0>0        0.2055
     14  C1         0.1290   32.9620   57.8600 C.3     0  <0>0        0.0512
     15  C10        6.9210   34.3740   57.4570 C.ar    0  <0>0       -0.0003
     16  C15        7.8350   34.0060   58.4250 C.ar    0  <0>0       -0.0024
     17  C14        8.4120   32.7500   58.3900 C.ar    0  <0>0       -0.0003
     18  C13        8.0800   31.8650   57.3810 C.ar    0  <0>0       -0.0000
     19  C12        7.1680   32.2350   56.4100 C.ar    0  <0>0       -0.0003
     20  C11        6.5890   33.4890   56.4480 C.ar    0  <0>0       -0.0024
     21  C17        8.4060   38.3040   59.3990 C.3     0  <0>0        0.1759
     22  N2         9.5270   37.5580   59.9760 N.am    0  <0>0       -0.2931
     23  C18        9.3280   36.7620   61.0460 C.2     0  <0>0        0.2463
     24  O3         8.2160   36.6640   61.5320 O.2     0  <0>0       -0.2701
     25  H19       10.4130   37.6360   59.5890 H       0  <0>0        0.1502
     26  C19       10.4480   36.0170   61.6230 C.2     0  <0>0        0.0577
     27  C20       10.5640   34.6930   61.3980 C.2     0  <0>0        0.0047
     28  C21       11.6900   33.9440   61.9780 C.ar    0  <0>0        0.0001
     29  C26       11.4710   32.7020   62.5820 C.ar    0  <0>0        0.0000
     30  C25       12.5330   32.0030   63.1190 C.ar    0  <0>0        0.0000
     31  C24       13.8100   32.5330   63.0690 C.ar    0  <0>0        0.0000
     32  C23       14.0340   33.7650   62.4770 C.ar    0  <0>0        0.0000
     33  C22       12.9840   34.4720   61.9320 C.ar    0  <0>0        0.0000
@<TRIPOS>BOND
     1    19    20   ar
     2    19    18   ar
     3    20    15   ar
     4     7     8   ar
     5     7     6   ar
     6     8     9   ar
     7     3     2    2
     8    18    17   ar
     9    15     5    1
    10    15    16   ar
    11     5     6    1
    12     5     1    1
    13     6    11   ar
    14    14    13    1
    15     9    12    1
    16     9    10   ar
    17     2     1   am
    18     2    21    1
    19    17    16   ar
    20    12    13    1
    21     1     4    1
    22    11    10   ar
    23    21    22    1
    24    25    22    1
    25    22    23   am
    26    23    24    2
    27    23    26    1
    28    27    26    2
    29    27    28    1
    30    33    28   ar
    31    33    32   ar
    32    28    29   ar
    33    32    31   ar
    34    29    30   ar
    35    31    30   ar
