@<TRIPOS>MOLECULE
ZINC36993047_replica-1.pdb
 21 22 0 0 0
SMALL
GASTEIGER

@<TRIPOS>ATOM
      1  C9        -0.7700   29.3420   55.8590 C.3     0  <0>0        0.0762
      2  C10       -2.2350   29.4930   56.2750 C.3     0  <0>0        0.0219
      3  C5        -0.6660   28.3320   54.7460 C.ar    0  <0>0       -0.0159
      4  C4         0.0130   27.1450   54.9500 C.ar    0  <0>0       -0.0252
      5  C3         0.1070   26.2190   53.9290 C.ar    0  <0>0       -0.0088
      6  C18        0.6500   26.8630   56.2860 C.3     0  <0>0        0.0307
      7  C2        -0.4770   26.4770   52.7030 C.ar    0  <0>0       -0.0225
      8  C1        -0.3740   25.4660   51.5910 C.3     0  <0>0        0.0310
      9  C7        -1.1520   27.6660   52.4980 C.ar    0  <0>0       -0.0088
     10  C6        -1.2500   28.5910   53.5190 C.ar    0  <0>0       -0.0252
     11  C8        -1.9910   29.8840   53.2960 C.3     0  <0>0        0.0307
     12  N1        -0.2570   30.6370   55.3930 N.3     0  <0>0       -0.2959
     13  H14        0.3510   30.5200   54.5970 H       0  <0>0        0.1235
     14  C11        0.4270   31.3530   56.4790 C.3     0  <0>0        0.0592
     15  C12        0.9410   30.3470   57.5090 C.3     0  <0>0        0.0175
     16  C13       -0.5520   32.3170   57.1520 C.3     0  <0>0        0.0486
     17  C14        0.2140   33.4470   57.7900 C.ar    0  <0>0        0.0086
     18  S1         1.1190   34.7740   57.0100 S.2     0  <0>0       -0.0907
     19  C17        1.6770   35.6020   58.4890 C.ar    0  <0>0        0.0351
     20  C16        1.1500   34.8210   59.4640 C.ar    0  <0>0        0.0072
     21  C15        0.4010   33.7170   59.1060 C.ar    0  <0>0        0.0027
@<TRIPOS>BOND
     1     8     7    1
     2     9     7   ar
     3     9    10   ar
     4     7     5   ar
     5    11    10    1
     6    10     3   ar
     7     5     4   ar
     8    13    12    1
     9     3     4   ar
    10     3     1    1
    11     4     6    1
    12    12     1    1
    13    12    14    1
    14     1     2    1
    15    14    16    1
    16    14    15    1
    17    18    17   ar
    18    18    19   ar
    19    16    17    1
    20    17    21   ar
    21    19    20   ar
    22    21    20   ar
