@<TRIPOS>MOLECULE
ZINC36791506_replica-1.pdb
 22 22 0 0 0
SMALL
GASTEIGER

@<TRIPOS>ATOM
      1  C7        10.5090   35.1480   60.9100 C.ar    0  <0>0        0.0478
      2  C8        10.2660   36.4830   61.2270 C.ar    0  <0>0        0.0146
      3  C9         9.4490   37.2440   60.4220 C.ar    0  <0>0        0.0030
      4  C10        8.8640   36.6770   59.2860 C.ar    0  <0>0        0.0236
      5  C11        9.1110   35.3370   58.9720 C.ar    0  <0>0        0.0743
      6  C12        9.9320   34.5820   59.7780 C.ar    0  <0>0        0.0184
      7  N1        11.3360   34.3820   61.7270 N.pl3   0  <0>0       -0.3074
      8  C6        10.9720   33.0000   62.0460 C.3     0  <0>0        0.1121
      9  C4        12.5700   34.9590   62.2650 C.3     0  <0>0        0.0729
     10  C5        12.3940   35.2350   63.7600 C.3     0  <0>0        0.0214
     11  C3        13.7240   33.9740   62.0620 C.3     0  <0>0        0.0197
     12  C2        14.3430   33.6260   63.4170 C.3     0  <0>0        0.0017
     13  C1        14.2340   32.1180   63.6550 C.3     0  <0>0        0.0001
     14  C13        8.4820   34.7200   57.7480 C.3     0  <0>0        0.4187
     15  F1         8.8160   33.3630   57.6860 F       0  <0>0       -0.1659
     16  F2         7.0910   34.8560   57.8210 F       0  <0>0       -0.1659
     17  F3         8.9550   35.3700   56.6030 F       0  <0>0       -0.1659
     18  C14        7.9890   37.4880   58.4220 C.2     0  <0>0        0.0780
     19  S1         8.6640   38.4380   57.1690 S.2     0  <0>0       -0.0352
     20  N2         6.6550   37.4810   58.6190 N.am    0  <0>0       -0.3517
     21  H18        6.2720   36.9420   59.3290 H       0  <0>0        0.1428
     22  H19        6.0780   38.0140   58.0500 H       0  <0>0        0.1428
@<TRIPOS>BOND
     1    17    14    1
     2    19    18    2
     3    15    14    1
     4    14    16    1
     5    14     5    1
     6    22    20    1
     7    18    20    1
     8    18     4    1
     9    20    21    1
    10     5     4   ar
    11     5     6   ar
    12     4     3   ar
    13     6     1   ar
    14     3     2   ar
    15     1     2   ar
    16     1     7    1
    17     7     8    1
    18     7     9    1
    19    11     9    1
    20    11    12    1
    21     9    10    1
    22    12    13    1
