@<TRIPOS>MOLECULE
ZINC03256377_replica-1.pdb
 27 30 0 0 0
SMALL
GASTEIGER

@<TRIPOS>ATOM
      1  C1         9.2450   37.9020   60.0840 C.3     0  <0>0        0.0540
      2  C2         9.5550   36.4620   60.4030 C.ar    0  <0>0        0.0813
      3  C3         8.7770   35.3320   59.9890 C.ar    0  <0>0        0.0397
      4  C4         7.6180   35.0550   59.2480 C.ar    0  <0>0        0.0143
      5  C5         7.2080   33.7640   59.0930 C.ar    0  <0>0        0.0842
      6  S1         8.4570   32.8480   59.9810 S.2     0  <0>0       -0.0634
      7  C6         9.4480   34.2190   60.5160 C.ar    0  <0>0        0.1134
      8  N1        10.5360   34.6500   61.1890 N.ar    0  <0>0       -0.2239
      9  N2        10.5710   36.0470   61.0990 N.ar    0  <0>0       -0.1690
     10  C13        6.0380   33.2540   58.3720 C.2     0  <0>0        0.2519
     11  O1         5.8400   32.0550   58.3060 O.2     0  <0>0       -0.2696
     12  N3         5.1830   34.1120   57.7820 N.am    0  <0>0       -0.3021
     13  H11        5.3410   35.0670   57.8350 H       0  <0>0        0.1497
     14  C14        4.0150   33.6020   57.0610 C.3     0  <0>0        0.0718
     15  C19        3.8750   34.3390   55.7280 C.3     0  <0>0        0.0180
     16  C18        3.7000   35.8360   55.9900 C.3     0  <0>0        0.0016
     17  C20        5.1330   34.1140   54.8860 C.3     0  <0>0        0.0017
     18  C17        2.4420   36.0620   56.8320 C.3     0  <0>0        0.0001
     19  C16        2.5810   35.3250   58.1640 C.3     0  <0>0        0.0017
     20  C15        2.7570   33.8280   57.9030 C.3     0  <0>0        0.0196
     21  C7        11.4640   33.8420   61.8600 C.ar    0  <0>0        0.0835
     22  C12       12.7860   34.2500   61.9740 C.ar    0  <0>0        0.0215
     23  C11       13.6990   33.4540   62.6350 C.ar    0  <0>0        0.0312
     24  C10       13.2970   32.2480   63.1860 C.ar    0  <0>0        0.1402
     25  C9        11.9780   31.8400   63.0740 C.ar    0  <0>0        0.0312
     26  F1        14.1920   31.4700   63.8340 F       0  <0>0       -0.2042
     27  C8        11.0610   32.6360   62.4180 C.ar    0  <0>0        0.0215
@<TRIPOS>BOND
     1    17    15    1
     2    15    16    1
     3    15    14    1
     4    16    18    1
     5    18    19    1
     6    14    12    1
     7    14    20    1
     8    12    13    1
     9    12    10   am
    10    20    19    1
    11    11    10    2
    12    10     5    1
    13     5     4   ar
    14     5     6   ar
    15     4     3   ar
    16     6     7   ar
    17     3     2   ar
    18     3     7   ar
    19     1     2    1
    20     2     9   ar
    21     7     8   ar
    22     9     8   ar
    23     8    21    1
    24    21    22   ar
    25    21    27   ar
    26    22    23   ar
    27    27    25   ar
    28    23    24   ar
    29    25    24   ar
    30    24    26    1
