@<TRIPOS>MOLECULE
ZINC10683657_replica-1.pdb
 32 33 0 0 0
SMALL
GASTEIGER

@<TRIPOS>ATOM
      1  C14        0.5590   30.8010   56.1900 C.2     0  <0>0        0.2782
      2  O2         0.9480   30.4930   57.2950 O.2     0  <0>0       -0.2697
      3  N1         1.1510   31.8120   55.5230 N.am    0  <0>0       -0.2307
      4  H20        0.8390   32.0580   54.6380 H       0  <0>0        0.1729
      5  C11       -0.5890   30.0540   55.5600 C.3     0  <0>0        0.2424
      6  O1        -0.2350   28.6790   55.4050 O.3     0  <0>0       -0.4702
      7  C10       -0.5230   28.0980   54.2100 C.ar    0  <0>0        0.1350
      8  C5        -0.1300   26.7920   53.9600 C.ar    0  <0>0        0.0115
      9  C6        -0.4260   26.2040   52.7440 C.ar    0  <0>0       -0.0013
     10  C7        -1.1120   26.9170   51.7790 C.ar    0  <0>0       -0.0001
     11  C8        -1.5050   28.2190   52.0270 C.ar    0  <0>0        0.0031
     12  C9        -1.2180   28.8100   53.2420 C.ar    0  <0>0        0.0366
     13  C3         0.6180   26.0150   55.0120 C.3     0  <0>0        0.0253
     14  C4        -0.1430   26.0870   56.3370 C.3     0  <0>0        0.0048
     15  C2         0.7430   24.5540   54.5740 C.3     0  <0>0        0.0045
     16  C1         0.5620   23.6410   55.7870 C.3     0  <0>0        0.0003
     17  C12       -1.8230   30.1660   56.4580 C.3     0  <0>0        0.0532
     18  C13       -2.9900   30.7390   55.6520 C.3     0  <0>0        0.0044
     19  N2         2.2180   32.5060   56.1080 N.am    0  <0>0       -0.2302
     20  C15        2.0120   33.7190   56.6590 C.2     0  <0>0        0.2614
     21  O3         0.9000   34.2100   56.6490 O.2     0  <0>0       -0.2686
     22  H21        3.1050   32.1140   56.1170 H       0  <0>0        0.1731
     23  C16        3.1390   34.4510   57.2770 C.ar    0  <0>0        0.0548
     24  C21        3.9510   35.2760   56.4960 C.ar    0  <0>0        0.0042
     25  C20        5.0000   35.9550   57.0790 C.ar    0  <0>0       -0.0041
     26  C19        5.2490   35.8200   58.4330 C.ar    0  <0>0       -0.0228
     27  C18        4.4480   35.0050   59.2130 C.ar    0  <0>0       -0.0041
     28  C17        3.3950   34.3190   58.6420 C.ar    0  <0>0        0.0042
     29  C22        6.3980   36.5660   59.0630 C.3     0  <0>0        0.0189
     30  C23        7.3540   35.5690   59.7190 C.3     0  <0>0        0.0044
     31  C24        7.1450   37.3560   57.9860 C.3     0  <0>0        0.0044
     32  C25        5.8600   37.5300   60.1220 C.3     0  <0>0        0.0044
@<TRIPOS>BOND
     1    10    11   ar
     2    10     9   ar
     3    11    12   ar
     4     9     8   ar
     5    12     7   ar
     6     8     7   ar
     7     8    13    1
     8     7     6    1
     9    15    13    1
    10    15    16    1
    11     4     3    1
    12    13    14    1
    13     6     5    1
    14     3    19    1
    15     3     1   am
    16     5     1    1
    17     5    17    1
    18    18    17    1
    19    19    22    1
    20    19    20   am
    21     1     2    2
    22    24    25   ar
    23    24    23   ar
    24    21    20    2
    25    20    23    1
    26    25    26   ar
    27    23    28   ar
    28    31    29    1
    29    26    29    1
    30    26    27   ar
    31    28    27   ar
    32    29    30    1
    33    29    32    1
