@<TRIPOS>MOLECULE
ZINC40280848_replica-1.pdb
 21 24 0 0 0
SMALL
GASTEIGER

@<TRIPOS>ATOM
      1  C7         7.7940   37.7500   58.7860 C.3     0  <0>0        0.1015
      2 Br          8.5220   38.5960   57.1660 Br      0  <0>0       -0.0720
      3  C6         8.8230   36.8180   59.3710 C.ar    0  <0>0       -0.0080
      4  C1         9.1120   35.6210   58.7420 C.ar    0  <0>0       -0.0000
      5  C2        10.0570   34.7660   59.2710 C.ar    0  <0>0        0.0363
      6  C3        10.7270   35.1000   60.4460 C.ar    0  <0>0        0.1346
      7  O3        11.6890   34.4210   61.1260 O.3     0  <0>0       -0.4754
      8  C4        10.4210   36.3030   61.0730 C.ar    0  <0>0        0.0152
      9  C17       11.7590   34.9190   62.4730 C.3     0  <0>0        0.2102
     10  C16       11.2780   36.3820   62.3210 C.3     0  <0>0        0.0767
     11  C5         9.4820   37.1570   60.5400 C.ar    0  <0>0       -0.0043
     12  C8         6.5540   36.9720   58.4320 C.ar    0  <0>0       -0.0046
     13  C13        6.3020   36.6360   57.1150 C.ar    0  <0>0        0.0369
     14  C12        5.1640   35.9150   56.7870 C.ar    0  <0>0        0.1721
     15  C11        4.2730   35.5380   57.7840 C.ar    0  <0>0        0.1724
     16  O1         4.9290   35.5930   55.4860 O.3     0  <0>0       -0.4684
     17  C10        4.5280   35.8830   59.1040 C.ar    0  <0>0        0.0398
     18  O2         3.1500   34.8300   57.4850 O.3     0  <0>0       -0.4684
     19  C9         5.6650   36.5990   59.4240 C.ar    0  <0>0        0.0002
     20  C15        2.7380   34.8280   56.1140 C.3     0  <0>0        0.2526
     21  C14        3.9710   34.5570   55.2410 C.3     0  <0>0        0.2526
@<TRIPOS>BOND
     1    21    16    1
     2    21    20    1
     3    16    14    1
     4    20    18    1
     5    14    13   ar
     6    14    15   ar
     7    13    12   ar
     8     2     1    1
     9    18    15    1
    10    15    17   ar
    11    12     1    1
    12    12    19   ar
    13     4     5   ar
    14     4     3   ar
    15     1     3    1
    16    17    19   ar
    17     5     6   ar
    18     3    11   ar
    19     6     8   ar
    20     6     7    1
    21    11     8   ar
    22     8    10    1
    23     7     9    1
    24    10     9    1
