@<TRIPOS>MOLECULE
ZINC06046403_replica-1.pdb
 26 27 0 0 0
SMALL
GASTEIGER

@<TRIPOS>ATOM
      1  N1         1.4380   33.8430   58.1630 N.pl3   0  <0>0       -0.2330
      2  C5         1.0830   32.5380   57.8830 C.1     0  <0>0        0.2248
      3  N2         1.0840   32.1040   56.6260 N.2     0  <0>0       -0.2466
      4  C6         0.7420   30.8480   56.3570 C.1     0  <0>0        0.2216
      5  N3         0.4000   30.0260   57.3440 N.2     0  <0>0       -0.2466
      6  C7         0.4000   30.4600   58.6000 C.1     0  <0>0        0.2248
      7  N4         0.7460   31.7140   58.8700 N.2     0  <0>0       -0.2464
      8  N5         0.0440   29.6070   59.6250 N.pl3   0  <0>0       -0.2330
      9  N6         0.7430   30.3980   55.0520 N.pl3   0  <0>0       -0.2572
     10  H21        0.9930   30.9980   54.3320 H       0  <0>0        0.1602
     11  C12        0.3670   29.0130   54.7560 C.3     0  <0>0        0.1031
     12  C13       -1.0280   28.9890   54.1270 C.3     0  <0>0        0.0436
     13  C14       -1.0710   27.9440   53.0420 C.2     0  <0>0       -0.0468
     14  C19       -1.9070   28.2260   51.8270 C.3     0  <0>0        0.0218
     15  C18       -1.5000   27.2930   50.6820 C.3     0  <0>0        0.0047
     16  C17       -1.4740   25.8560   51.2170 C.3     0  <0>0        0.0050
     17  C16       -0.3270   25.7350   52.2230 C.3     0  <0>0        0.0254
     18  C15       -0.3910   26.8580   53.2170 C.2     0  <0>0       -0.0346
     19  C2         1.8090   34.7500   57.0740 C.3     0  <0>0        0.1032
     20  C1         0.8190   35.9150   57.0220 C.3     0  <0>0        0.0240
     21  C3         1.4430   34.3190   59.5470 C.3     0  <0>0        0.1032
     22  C4         2.8600   34.2210   60.1170 C.3     0  <0>0        0.0240
     23  C8        -0.3330   28.2230   59.3280 C.3     0  <0>0        0.1032
     24  C9        -1.8490   28.0670   59.4600 C.3     0  <0>0        0.0240
     25  C10        0.0430   30.0850   61.0100 C.3     0  <0>0        0.1032
     26  C11        0.9700   29.2080   61.8520 C.3     0  <0>0        0.0240
@<TRIPOS>BOND
     1    15    16    1
     2    15    14    1
     3    16    17    1
     4    14    13    1
     5    17    18    1
     6    13    18    2
     7    13    12    1
     8    12    11    1
     9    10     9    1
    10    11     9    1
    11     9     4    1
    12     4     3    2
    13     4     5    2
    14     3     2    2
    15    20    19    1
    16    19     1    1
    17     5     6    2
    18     2     1    1
    19     2     7    2
    20     1    21    1
    21     6     7    2
    22     6     8    1
    23    23    24    1
    24    23     8    1
    25    21    22    1
    26     8    25    1
    27    25    26    1
