@<TRIPOS>MOLECULE
ZINC39714010_replica-1.pdb
 30 34 0 0 0
SMALL
GASTEIGER

@<TRIPOS>ATOM
      1  C11        7.3670   33.8800   60.1520 C.2     0  <0>0        0.2741
      2  O1         6.1680   33.7100   60.0380 O.2     0  <0>0       -0.2677
      3  N1         8.1730   32.8380   60.4360 N.am    0  <0>0       -0.1209
      4  C12        7.6550   31.5540   60.4760 C.2     0  <0>0        0.2396
      5  S1         7.3670   30.4190   59.1250 S.3     0  <0>0       -0.0357
      6  C18        6.7160   29.0800   60.0940 C.2     0  <0>0        0.0611
      7  C13        6.7580   29.6080   61.4040 C.2     0  <0>0        0.1218
      8  C17        6.2470   27.8200   59.8170 C.2     0  <0>0        0.0381
      9  N2         7.2450   30.8630   61.5140 N.2     0  <0>0       -0.3820
     10  C14        6.2870   28.7610   62.4350 C.3     0  <0>0        0.0879
     11  C15        5.8220   27.5040   62.1510 C.2     0  <0>0        0.0110
     12  C16        5.7940   27.0160   60.8500 C.2     0  <0>0        0.1369
     13  F1         5.3310   25.7740   60.5970 F       0  <0>0       -0.2045
     14  N3         9.5340   33.0530   60.6900 N.2     0  <0>0       -0.1666
     15  C19       10.0480   32.6850   61.8280 C.2     0  <0>0        0.1248
     16  C20       11.4450   33.0070   62.1390 C.ar    0  <0>0        0.0502
     17  S2        12.6570   32.0300   63.0120 S.2     0  <0>0       -0.0848
     18  C23       14.0230   33.1750   62.9140 C.ar    0  <0>0        0.0355
     19  C22       13.4780   34.2210   62.2390 C.ar    0  <0>0        0.0075
     20  C21       12.1650   34.1500   61.8370 C.ar    0  <0>0        0.0086
     21  C10        7.9390   35.2270   59.9790 C.ar    0  <0>0        0.0557
     22  C4         8.0290   35.8340   58.6520 C.ar    0  <0>0        0.0044
     23  C3         7.5790   35.1640   57.5080 C.ar    0  <0>0        0.0001
     24  C5         8.5870   37.1310   58.5300 C.ar    0  <0>0        0.0001
     25  C2         7.6830   35.7660   56.2900 C.ar    0  <0>0        0.0000
     26  C1         8.2310   37.0410   56.1670 C.ar    0  <0>0        0.0000
     27  C6         8.6780   37.7210   57.2580 C.ar    0  <0>0        0.0000
     28  C7         9.0380   37.8000   59.6800 C.ar    0  <0>0        0.0000
     29  C8         8.9430   37.2150   60.9060 C.ar    0  <0>0        0.0001
     30  C9         8.4050   35.9460   61.0720 C.ar    0  <0>0        0.0046
@<TRIPOS>BOND
     1    26    25   ar
     2    26    27   ar
     3    25    23   ar
     4    27    24   ar
     5    23    22   ar
     6    24    22   ar
     7    24    28   ar
     8    22    21   ar
     9     5     6    1
    10     5     4    1
    11    28    29   ar
    12     8     6    2
    13     8    12    1
    14    21     1    1
    15    21    30   ar
    16     2     1    2
    17     6     7    1
    18     1     3   am
    19     3     4    1
    20     3    14    1
    21     4     9    2
    22    13    12    1
    23    14    15    2
    24    12    11    2
    25    29    30   ar
    26     7     9    2
    27     7    10    1
    28    15    16    1
    29    20    16   ar
    30    20    19   ar
    31    16    17   ar
    32    11    10    1
    33    19    18   ar
    34    18    17   ar
