@<TRIPOS>MOLECULE
ZINC54630978_replica-1.pdb
 21 22 0 0 0
SMALL
GASTEIGER

@<TRIPOS>ATOM
      1  C3        -0.9270   30.4510   54.5310 C.3     0  <0>0       -0.0618
      2  C4        -2.1610   30.1040   53.6960 C.3     0  <0>0       -0.0214
      3  C5        -1.7530   29.1910   52.5380 C.3     0  <0>0       -0.0021
      4  C6        -1.1360   27.9060   53.0960 C.3     0  <0>0       -0.0001
      5  C7         0.0980   28.2530   53.9300 C.3     0  <0>0       -0.0020
      6  C8        -0.3100   29.1670   55.0880 C.3     0  <0>0       -0.0194
      7  C9        -1.3350   28.4490   55.9680 C.3     0  <0>0       -0.0019
      8  C10       -0.6830   28.0610   57.2970 C.3     0  <0>0        0.0049
      9  C14       -1.6310   28.3990   58.4510 C.3     0  <0>0        0.0322
     10  C13       -1.0050   27.9360   59.7680 C.3     0  <0>0        0.1422
     11  O1        -0.7390   26.5330   59.7010 O.3     0  <0>0       -0.3538
     12  C12        0.1790   26.1630   58.6690 C.3     0  <0>0        0.1422
     13  C11       -0.4000   26.5560   57.3080 C.3     0  <0>0        0.0322
     14  N1        -1.3180   31.3280   55.6420 N.4     0  <0>0        0.3851
     15  H9        -1.7420   30.7760   56.3740 H       0  <0>0       -0.0844
     16  H34       -1.9810   32.0140   55.3120 H       0  <0>0       -0.0844
     17  C2        -0.1290   32.0100   56.1710 C.3     0  <0>0       -0.0817
     18  C1        -0.0220   31.7550   57.6760 C.3     0  <0>0       -0.0255
     19  C15       -0.7280   26.9920   51.9380 C.3     0  <0>0       -0.0000
     20  C16       -0.4110   25.5960   52.4770 C.3     0  <0>0       -0.0000
     21  C17       -1.8770   26.9020   50.9310 C.3     0  <0>0       -0.0000
@<TRIPOS>BOND
     1    21    19    1
     2    19    20    1
     3    19     4    1
     4     3     4    1
     5     3     2    1
     6     4     5    1
     7     2     1    1
     8     5     6    1
     9     1     6    1
    10     1    14    1
    11     6     7    1
    12    16    14    1
    13    14    17    1
    14    14    15    1
    15     7     8    1
    16    17    18    1
    17     8    13    1
    18     8     9    1
    19    13    12    1
    20     9    10    1
    21    12    11    1
    22    11    10    1
