@<TRIPOS>MOLECULE
ZINC55014415_replica-1.pdb
 20 20 0 0 0
SMALL
GASTEIGER

@<TRIPOS>ATOM
      1  C8         4.5650   35.5300   57.9900 C.2     0  <0>0        0.2101
      2  N2         3.8800   34.7640   58.8120 N.2     0  <0>0       -0.3886
      3  C9         2.5770   34.5970   58.6630 C.2     0  <0>0        0.1006
      4  C10        1.9870   35.2470   57.6310 C.3     0  <0>0        0.1325
      5  S1         3.3910   36.0910   56.9220 S.3     0  <0>0       -0.0586
      6  N1         5.9220   35.8110   58.0030 N.pl3   0  <0>0       -0.2786
      7  C7         6.6960   35.7430   56.7610 C.3     0  <0>0        0.1150
      8  C2         6.5830   36.1730   59.2590 C.3     0  <0>0        0.0756
      9  C1         5.8140   37.3140   59.9290 C.3     0  <0>0        0.0215
     10  C3         8.0160   36.6240   58.9700 C.3     0  <0>0        0.0198
     11  C4         8.9760   35.9190   59.9300 C.3     0  <0>0        0.0016
     12  C5         9.9380   35.0350   59.1320 C.3     0  <0>0        0.0001
     13  C6         9.7740   36.9620   60.7130 C.3     0  <0>0        0.0001
     14  C11        0.5420   35.2580   57.2030 C.3     0  <0>0        0.1551
     15  O1         0.2500   36.4940   56.5470 O.3     0  <0>0       -0.3806
     16  H19       -0.4350   36.4260   55.8680 H       0  <0>0        0.2105
     17  C12        1.7840   33.7220   59.5990 C.3     0  <0>0        0.0437
     18  C13        0.6510   34.5380   60.2240 C.3     0  <0>0        0.0067
     19  C14        1.1940   32.5440   58.8190 C.3     0  <0>0        0.0067
     20  C15        2.7010   33.1940   60.7040 C.3     0  <0>0        0.0067
@<TRIPOS>BOND
     1    16    15    1
     2    15    14    1
     3     7     6    1
     4     5     4    1
     5     5     1    1
     6    14     4    1
     7     4     3    1
     8     1     6    1
     9     1     2    2
    10     6     8    1
    11     3     2    2
    12     3    17    1
    13    19    17    1
    14    10     8    1
    15    10    11    1
    16    12    11    1
    17     8     9    1
    18    17    18    1
    19    17    20    1
    20    11    13    1
