@<TRIPOS>MOLECULE
ZINC37274037_replica-1.pdb
 22 23 0 0 0
SMALL
GASTEIGER

@<TRIPOS>ATOM
      1  C1        11.2670   31.3540   63.4410 C.ar    0  <0>0        0.0013
      2  C2        12.4230   30.7530   63.9040 C.ar    0  <0>0        0.0006
      3  C3        13.6440   31.3820   63.7490 C.ar    0  <0>0        0.0076
      4  C4        13.7120   32.6210   63.1280 C.ar    0  <0>0        0.0458
      5  C5        12.5460   33.2270   62.6610 C.ar    0  <0>0        0.0509
      6  C6        11.3260   32.5890   62.8210 C.ar    0  <0>0        0.0148
      7  N1        12.6070   34.4770   62.0340 N.pl3   0  <0>0       -0.3261
      8  H5        13.2740   34.6440   61.3500 H       0  <0>0        0.1472
      9  C7        11.6640   35.5330   62.4090 C.3     0  <0>0        0.1528
     10  C8        10.7540   35.8310   61.2450 C.ar    0  <0>0        0.1447
     11  O1        10.0160   36.9420   61.0910 O.2     0  <0>0       -0.4356
     12  C11        9.3330   36.8690   59.9380 C.ar    0  <0>0        0.2886
     13  C10        9.6230   35.6970   59.3450 C.ar    0  <0>0        0.0658
     14  C9        10.5400   35.0280   60.1890 C.ar    0  <0>0        0.0397
     15  N2         8.4100   37.9000   59.4100 N.pl3   0  <0>0        0.0932
     16  O2         7.3110   38.0340   59.8950 O.2     0  <0>0       -0.1230
     17  O3         8.7560   38.6080   58.4940 O.2     0  <0>0       -0.1230
     18  S1        15.2670   33.4260   62.9310 S.3     0  <0>0       -0.0132
     19  C12       15.6580   34.0400   64.5920 C.3     0  <0>0        0.4477
     20  F1        15.7710   32.9600   65.4750 F       0  <0>0       -0.1600
     21  F2        16.8660   34.7430   64.5570 F       0  <0>0       -0.1600
     22  F3        14.6360   34.8910   65.0270 F       0  <0>0       -0.1600
@<TRIPOS>BOND
     1    17    15    2
     2    13    12   ar
     3    13    14   ar
     4    15    16    2
     5    15    12    1
     6    12    11   ar
     7    14    10   ar
     8    11    10   ar
     9    10     9    1
    10     8     7    1
    11     7     9    1
    12     7     5    1
    13     5     6   ar
    14     5     4   ar
    15     6     1   ar
    16    18     4    1
    17    18    19    1
    18     4     3   ar
    19     1     2   ar
    20     3     2   ar
    21    21    19    1
    22    19    22    1
    23    19    20    1
