@<TRIPOS>MOLECULE
ZINC43269421_replica-1.pdb
 23 25 0 0 0
SMALL
GASTEIGER

@<TRIPOS>ATOM
      1  C6         0.4920   31.5770   55.6200 C.2     0  <0>0        0.2130
      2  N3         0.4620   30.4990   54.8580 N.2     0  <0>0       -0.3842
      3  C7        -0.5040   29.6000   54.9770 C.2     0  <0>0        0.1212
      4  C8        -1.4900   29.7920   55.9050 C.3     0  <0>0        0.1077
      5  S2        -0.9670   31.3420   56.6270 S.3     0  <0>0       -0.0606
      6  C9        -2.6830   28.9330   56.2330 C.3     0  <0>0        0.0197
      7  N2         1.4140   32.6140   55.6380 N.am    0  <0>0       -0.2535
      8  C5         2.3840   32.6360   56.5730 C.2     0  <0>0        0.2434
      9  O1         2.4520   31.7470   57.4020 O.2     0  <0>0       -0.2734
     10  H5         1.3600   33.3230   54.9770 H       0  <0>0        0.1578
     11  C3         3.3590   33.7320   56.5910 C.3     0  <0>0        0.1613
     12  C2         3.2830   34.9690   57.1920 C.2     0  <0>0        0.0514
     13  C1         2.0700   35.3930   57.9810 C.3     0  <0>0        0.0482
     14  N1         4.3160   35.7590   57.0380 N.2     0  <0>0       -0.2657
     15  C4         5.3720   35.3870   56.3540 C.3     0  <0>0        0.1830
     16  S1         4.9760   33.8330   55.8410 S.3     0  <0>0       -0.1002
     17  C10       -0.5180   28.3960   54.1100 C.ar    0  <0>0        0.0264
     18  C15        0.1490   27.2390   54.5100 C.ar    0  <0>0        0.0027
     19  C14        0.1300   26.1200   53.7030 C.ar    0  <0>0        0.0068
     20  C13       -0.5420   26.1490   52.4930 C.ar    0  <0>0        0.0346
     21  C12       -1.2020   27.2970   52.0890 C.ar    0  <0>0        0.0068
     22 Br         -0.5590   24.6140   51.3880 Br      0  <0>0       -0.0490
     23  C11       -1.1920   28.4190   52.8910 C.ar    0  <0>0        0.0027
@<TRIPOS>BOND
     1    22    20    1
     2    21    20   ar
     3    21    23   ar
     4    20    19   ar
     5    23    17   ar
     6    19    18   ar
     7    17    18   ar
     8    17     3    1
     9     2     3    2
    10     2     1    2
    11    10     7    1
    12     3     4    1
    13     1     7    1
    14     1     5    1
    15     7     8   am
    16    16    15    1
    17    16    11    1
    18     4     6    1
    19     4     5    1
    20    15    14    1
    21     8    11    1
    22     8     9    2
    23    11    12    1
    24    14    12    2
    25    12    13    1
