@<TRIPOS>MOLECULE
ZINC37206625_replica-1.pdb
 19 21 0 0 0
SMALL
GASTEIGER

@<TRIPOS>ATOM
      1  C1         8.2940   35.1330   57.4850 C.2     0  <0>0       -0.0178
      2  C2         9.3170   34.6420   58.2550 C.2     0  <0>0        0.0285
      3  C3         9.6890   35.2850   59.4580 C.2     0  <0>0        0.1399
      4  C4         8.9510   36.4390   59.8020 C.2     0  <0>0        0.0695
      5  C5         7.9280   36.9240   59.0260 C.2     0  <0>0        0.0483
      6  C6         7.5910   36.2690   57.8540 C.3     0  <0>0        0.0646
      7 Cl          7.0630   38.3500   59.5100 Cl      0  <0>0       -0.0860
      8  S1         9.7090   36.9310   61.3330 S.3     0  <0>0       -0.0369
      9  C7        10.9170   35.6160   61.4170 C.2     0  <0>0        0.2152
     10  N1        10.6650   34.9330   60.3230 N.2     0  <0>0       -0.3800
     11  N2        11.8740   35.3800   62.3850 N.pl3   0  <0>0       -0.2828
     12  H4        12.2720   36.1230   62.8640 H       0  <0>0        0.1551
     13  C8        12.2680   34.0690   62.6740 C.ar    0  <0>0        0.0506
     14  C13       11.3140   33.0680   62.8030 C.ar    0  <0>0        0.0170
     15  C12       11.7080   31.7730   63.0830 C.ar    0  <0>0        0.0309
     16  C11       13.0500   31.4760   63.2470 C.ar    0  <0>0        0.1402
     17  C10       14.0010   32.4750   63.1240 C.ar    0  <0>0        0.0309
     18  F1        13.4300   30.2110   63.5260 F       0  <0>0       -0.2042
     19  C9        13.6140   33.7680   62.8380 C.ar    0  <0>0        0.0170
@<TRIPOS>BOND
     1     1     6    1
     2     1     2    2
     3     6     5    1
     4     2     3    1
     5     5     7    1
     6     5     4    2
     7     3     4    1
     8     3    10    2
     9     4     8    1
    10    10     9    2
    11     8     9    1
    12     9    11    1
    13    11    13    1
    14    11    12    1
    15    13    14   ar
    16    13    19   ar
    17    14    15   ar
    18    19    17   ar
    19    15    16   ar
    20    17    16   ar
    21    16    18    1
