@<TRIPOS>MOLECULE
ZINC00353566_replica-1.pdb
 21 22 0 0 0
SMALL
GASTEIGER

@<TRIPOS>ATOM
      1  C9        12.4650   33.9990   62.3100 C.ar    0  <0>0        0.0525
      2  C10       13.7770   34.3490   62.6470 C.ar    0  <0>0        0.0045
      3  C11       14.6040   33.4210   63.2410 C.ar    0  <0>0       -0.0001
      4  C12       14.1430   32.1420   63.5070 C.ar    0  <0>0       -0.0009
      5  C13       12.8500   31.7830   63.1800 C.ar    0  <0>0        0.0159
      6  C14       12.0030   32.7020   62.5820 C.ar    0  <0>0        0.1314
      7  C8        11.5770   34.9830   61.6750 C.2     0  <0>0        0.1018
      8  N1        10.9480   34.6790   60.5740 N.2     0  <0>0       -0.2437
      9  C5        10.1210   35.5960   59.9830 C.ar    0  <0>0        0.0816
     10  C4         9.8510   36.8090   60.6220 C.ar    0  <0>0        0.0222
     11  C3         9.0180   37.7300   60.0230 C.ar    0  <0>0        0.0384
     12  C2         8.4480   37.4540   58.7880 C.ar    0  <0>0        0.1388
     13  C7         8.7140   36.2500   58.1490 C.ar    0  <0>0        0.0384
     14  C6         9.5490   35.3250   58.7380 C.ar    0  <0>0        0.0222
     15  O1         7.6280   38.3650   58.2020 O.3     0  <0>0       -0.4714
     16  C1         7.8160   38.6050   56.8050 C.3     0  <0>0        0.2525
     17  O2        10.7320   32.3500   62.2600 O.3     0  <0>0       -0.5058
     18  H12       10.1290   33.1010   62.1640 H       0  <0>0        0.2922
     19  C15       12.3590   30.3890   63.4750 C.3     0  <0>0        0.0554
     20  C16       12.6760   30.0370   64.9060 C.2     0  <0>0       -0.0213
     21  C17       12.2220   28.9220   65.4220 C.2     0  <0>0       -0.0046
@<TRIPOS>BOND
     1    16    15    1
     2    13    14   ar
     3    13    12   ar
     4    15    12    1
     5    14     9   ar
     6    12    11   ar
     7     9     8    1
     8     9    10   ar
     9    11    10   ar
    10     8     7    2
    11     7     1    1
    12    18    17    1
    13    17     6    1
    14     1     6   ar
    15     1     2   ar
    16     6     5   ar
    17     2     3   ar
    18     5    19    1
    19     5     4   ar
    20     3     4   ar
    21    19    20    1
    22    20    21    2
