@<TRIPOS>MOLECULE
ZINC20604498_replica-1.pdb
 28 31 0 0 0
SMALL
GASTEIGER

@<TRIPOS>ATOM
      1  N1         7.7200   36.1150   59.2120 N.am    0  <0>0       -0.2268
      2  C8         8.3010   34.9610   59.7030 C.2     0  <0>0        0.1811
      3  C9         9.4120   35.0870   60.5590 C.3     0  <0>0        0.1675
      4  C10       10.0230   33.9420   61.0740 C.2     0  <0>0        0.0403
      5  C11        9.5120   32.7210   60.7190 C.2     0  <0>0        0.0304
      6  C12        8.4050   32.6590   59.8630 C.2     0  <0>0        0.1381
      7  N2         7.8400   33.7650   59.3860 N.2     0  <0>0       -0.3895
      8  C18        9.8930   36.4390   60.8850 C.2     0  <0>0        0.2390
      9  O1        10.8510   36.6000   61.6230 O.2     0  <0>0       -0.2739
     10  N3         9.2530   37.4910   60.3520 N.am    0  <0>0       -0.2660
     11  C19        8.2210   37.3370   59.5490 C.2     0  <0>0        0.1496
     12  S2         7.4460   38.7750   58.8900 S.2     0  <0>0       -0.0176
     13  H13        9.6100   38.5010   60.6000 H       0  <0>0        0.1565
     14  C6         6.6130   36.0280   58.3570 C.ar    0  <0>0        0.0588
     15  C5         6.7980   35.9790   56.9820 C.ar    0  <0>0        0.0152
     16  C4         5.7050   35.8870   56.1430 C.ar    0  <0>0        0.0010
     17  C3         4.4280   35.8560   56.6700 C.ar    0  <0>0       -0.0042
     18  C2         4.2390   35.9050   58.0400 C.ar    0  <0>0       -0.0206
     19  C1         2.8460   35.8640   58.6090 C.3     0  <0>0        0.0311
     20  C7         5.3290   35.9910   58.8840 C.ar    0  <0>0        0.0110
     21  C13        7.8570   31.3450   59.4840 C.ar    0  <0>0        0.0590
     22  S1         6.9920   30.1530   60.4940 S.2     0  <0>0       -0.0839
     23  C16        6.7180   28.9120   59.2400 C.ar    0  <0>0        0.0355
     24  C15        7.2950   29.4790   58.1470 C.ar    0  <0>0        0.0076
     25  C14        7.8720   30.7210   58.2620 C.ar    0  <0>0        0.0096
     26  C17       11.2130   34.0450   61.9920 C.3     0  <0>0        0.3381
     27  F1        11.2480   32.9300   62.8370 F       0  <0>0       -0.1936
     28  F2        12.3870   34.0910   61.2330 F       0  <0>0       -0.1936
@<TRIPOS>BOND
     1    16    17   ar
     2    16    15   ar
     3    17    18   ar
     4    15    14   ar
     5    18    19    1
     6    18    20   ar
     7    24    25   ar
     8    24    23   ar
     9    25    21   ar
    10    14    20   ar
    11    14     1    1
    12    12    11    2
    13     1    11    1
    14     1     2    1
    15    23    22   ar
    16     7     2    2
    17     7     6    2
    18    21     6    1
    19    21    22   ar
    20    11    10    1
    21     2     3    1
    22     6     5    1
    23    10    13    1
    24    10     8   am
    25     3     8    1
    26     3     4    1
    27     5     4    2
    28     8     9    2
    29     4    26    1
    30    28    26    1
    31    26    27    1
