@<TRIPOS>MOLECULE
ZINC05129072_replica-1.pdb
 22 23 0 0 0
SMALL
GASTEIGER

@<TRIPOS>ATOM
      1  C8        -0.9490   30.7860   54.1660 C.2     0  <0>0        0.0619
      2  C9        -1.2220   31.0870   55.4550 C.2     0  <0>0        0.0159
      3  C10       -0.3000   31.8320   56.2140 C.2     0  <0>0        0.0029
      4  C11        1.0330   31.7420   55.9470 C.2     0  <0>0        0.0207
      5  C12        1.9530   32.4860   56.7030 C.2     0  <0>0        0.0988
      6  N2         2.1970   33.7380   56.3950 N.2     0  <0>0       -0.2438
      7  C13        3.0920   34.4610   57.1300 C.ar    0  <0>0        0.0813
      8  C18        2.6390   35.3720   58.0900 C.ar    0  <0>0        0.0188
      9  C17        3.5500   36.0950   58.8330 C.ar    0  <0>0       -0.0027
     10  C16        4.9080   35.9190   58.6310 C.ar    0  <0>0       -0.0218
     11  C15        5.3630   35.0190   57.6830 C.ar    0  <0>0       -0.0027
     12  C19        5.8950   36.7120   59.4470 C.3     0  <0>0        0.0310
     13  C14        4.4650   34.2900   56.9320 C.ar    0  <0>0        0.0188
     14  N1        -1.8480   30.0600   53.4270 N.pl3   0  <0>0       -0.3116
     15  H8        -2.8460   30.4700   53.2160 H       0  <0>0        0.1523
     16  C5        -1.4950   28.7990   52.9400 C.ar    0  <0>0        0.0483
     17  C4        -1.9470   28.3820   51.6940 C.ar    0  <0>0        0.0143
     18  C3        -1.5960   27.1340   51.2160 C.ar    0  <0>0       -0.0030
     19  C2        -0.7960   26.3010   51.9760 C.ar    0  <0>0       -0.0218
     20  C1        -0.4160   24.9400   51.4510 C.3     0  <0>0        0.0310
     21  C7        -0.3440   26.7130   53.2160 C.ar    0  <0>0       -0.0030
     22  C6        -0.6860   27.9610   53.6980 C.ar    0  <0>0        0.0143
@<TRIPOS>BOND
     1    18    17   ar
     2    18    19   ar
     3    20    19    1
     4    17    16   ar
     5    19    21   ar
     6    16    14    1
     7    16    22   ar
     8    21    22   ar
     9    15    14    1
    10    14     1    1
    11     1     2    2
    12     2     3    1
    13     4     3    2
    14     4     5    1
    15     6     5    2
    16     6     7    1
    17    13     7   ar
    18    13    11   ar
    19     7     8   ar
    20    11    10   ar
    21     8     9   ar
    22    10     9   ar
    23    10    12    1
