@<TRIPOS>MOLECULE
ZINC02932999_replica-1.pdb
 30 32 0 0 0
SMALL
GASTEIGER

@<TRIPOS>ATOM
      1  C8        -0.8950   29.6790   54.3060 C.1     0  <0>0        0.1692
      2  N2        -1.4340   29.3900   53.1360 N.2     0  <0>0       -0.3386
      3  C9        -1.2770   28.1700   52.6010 C.2     0  <0>0        0.1336
      4  C10       -1.8360   27.8280   51.3610 C.2     0  <0>0        0.0293
      5  C11       -1.6480   26.5730   50.8610 C.2     0  <0>0        0.0020
      6  C12       -0.9100   25.6250   51.5620 C.2     0  <0>0       -0.0036
      7  C13       -0.3530   25.9250   52.7720 C.2     0  <0>0       -0.0110
      8  C14       -0.5260   27.2040   53.3120 C.3     0  <0>0        0.1426
      9  C15        0.0280   27.5710   54.5640 C.2     0  <0>0        0.1805
     10  N3        -0.1830   28.8020   55.0080 N.2     0  <0>0       -0.3236
     11  S1        -1.1300   31.2960   54.9660 S.3     0  <0>0       -0.0083
     12  C7         0.5030   31.5770   55.6960 C.3     0  <0>0        0.1590
     13  C6         0.4030   32.6500   56.7490 C.2     0  <0>0        0.2346
     14  N1         0.6250   33.9390   56.4210 N.am    0  <0>0       -0.3036
     15  H12        0.8500   34.1750   55.5070 H       0  <0>0        0.1495
     16  O1         0.1240   32.3560   57.8910 O.2     0  <0>0       -0.2741
     17  C5         0.5290   34.9830   57.4440 C.3     0  <0>0        0.0894
     18  C4         1.5530   36.0810   57.1500 C.3     0  <0>0        0.0212
     19  C2         2.9550   35.4710   57.1000 C.3     0  <0>0        0.0017
     20  C1         3.7000   36.0050   55.8750 C.3     0  <0>0        0.0001
     21  C3         3.7220   35.8520   58.3680 C.3     0  <0>0        0.0001
     22  N4         0.7690   26.6710   55.3010 N.pl3   0  <0>0       -0.3067
     23  H19        1.6230   26.3580   54.9660 H       0  <0>0        0.1492
     24  C16        0.2640   26.1880   56.5890 C.3     0  <0>0        0.1159
     25  C17        0.2150   24.6820   56.5740 C.ar    0  <0>0       -0.0026
     26  C22        0.6410   23.9870   55.4580 C.ar    0  <0>0       -0.0026
     27  C21        0.5970   22.6050   55.4460 C.ar    0  <0>0       -0.0003
     28  C20        0.1260   21.9180   56.5500 C.ar    0  <0>0       -0.0000
     29  C19       -0.3000   22.6140   57.6650 C.ar    0  <0>0       -0.0003
     30  C18       -0.2500   23.9950   57.6800 C.ar    0  <0>0       -0.0026
@<TRIPOS>BOND
     1     5     4    2
     2     5     6    1
     3     4     3    1
     4     6     7    2
     5     3     2    2
     6     3     8    1
     7     7     8    1
     8     2     1    2
     9     8     9    1
    10     1    11    1
    11     1    10    2
    12     9    10    2
    13     9    22    1
    14    11    12    1
    15    23    22    1
    16    22    24    1
    17    27    26   ar
    18    27    28   ar
    19    26    25   ar
    20    15    14    1
    21    12    13    1
    22    20    19    1
    23    14    13   am
    24    14    17    1
    25    28    29   ar
    26    25    24    1
    27    25    30   ar
    28    13    16    2
    29    19    18    1
    30    19    21    1
    31    18    17    1
    32    29    30   ar
