@<TRIPOS>MOLECULE
ZINC52254631_replica-1.pdb
 21 21 0 0 0
SMALL
GASTEIGER

@<TRIPOS>ATOM
      1  C3         8.2800   36.5110   58.3800 C.3     0  <0>0        0.1169
      2  C2         7.9270   37.9990   58.4290 C.3     0  <0>0        0.0317
      3  C1         8.5110   38.7020   57.2020 C.3     0  <0>0        0.0029
      4  C4         9.2440   36.1870   59.4920 C.ar    0  <0>0        0.0024
      5  C9         9.9110   34.9760   59.4970 C.ar    0  <0>0        0.0003
      6  C8        10.7990   34.6800   60.5140 C.ar    0  <0>0        0.0294
      7  C7        11.0110   35.5920   61.5340 C.ar    0  <0>0        0.1401
      8  C6        10.3390   36.8020   61.5310 C.ar    0  <0>0        0.0294
      9  F1        11.8760   35.3010   62.5310 F       0  <0>0       -0.2042
     10  C5         9.4560   37.0990   60.5100 C.ar    0  <0>0        0.0003
     11  C10        7.0080   35.6790   58.5500 C.3     0  <0>0        0.1274
     12  C11        5.9150   36.5410   59.1850 C.3     0  <0>0        0.0132
     13  C12        4.5460   36.0830   58.6800 C.3     0  <0>0        0.0007
     14  C13        5.9720   36.3980   60.7070 C.3     0  <0>0        0.0007
     15  C14        6.5420   35.1900   57.2020 C.2     0  <0>0        0.3191
     16  O1         6.2040   35.9830   56.3570 O.2     0  <0>0       -0.2500
     17  O2         6.5040   33.8740   56.9420 O.3     0  <0>0       -0.4484
     18  C15        6.9970   32.9970   57.9570 C.3     0  <0>0        0.2086
     19  C16        8.2770   32.3170   57.4650 C.3     0  <0>0        0.0513
     20  O3         8.8840   36.2050   57.1220 O.3     0  <0>0       -0.3821
     21  H23        9.6580   36.7460   56.9160 H       0  <0>0        0.2107
@<TRIPOS>BOND
     1    16    15    2
     2    21    20    1
     3    17    15    1
     4    17    18    1
     5    20     1    1
     6     3     2    1
     7    15    11    1
     8    19    18    1
     9     1     2    1
    10     1    11    1
    11     1     4    1
    12    11    12    1
    13    13    12    1
    14    12    14    1
    15     4     5   ar
    16     4    10   ar
    17     5     6   ar
    18    10     8   ar
    19     6     7   ar
    20     8     7   ar
    21     7     9    1
