@<TRIPOS>MOLECULE
ZINC53582615_replica-1.pdb
 26 27 0 0 0
SMALL
GASTEIGER

@<TRIPOS>ATOM
      1  C1         5.4640   36.4790   60.5260 C.ar    0  <0>0        0.0013
      2  C2         4.9980   36.0260   59.3050 C.ar    0  <0>0        0.0014
      3  C3         5.8200   36.0550   58.1930 C.ar    0  <0>0        0.0199
      4  C4         7.1100   36.5360   58.2990 C.ar    0  <0>0        0.1272
      5  C5         7.5820   36.9930   59.5240 C.ar    0  <0>0        0.0622
      6  C6         6.7530   36.9620   60.6390 C.ar    0  <0>0        0.0156
      7  N1         8.8860   37.4800   59.6340 N.pl3   0  <0>0       -0.3312
      8  H5         9.2370   38.0840   58.9600 H       0  <0>0        0.1469
      9  C7         9.7240   37.0790   60.7670 C.3     0  <0>0        0.0967
     10  C8        10.4310   35.7630   60.4380 C.3     0  <0>0        0.1061
     11  C9        11.1810   35.2790   61.6530 C.2     0  <0>0        0.2242
     12  O1        11.5320   36.0680   62.5020 O.2     0  <0>0       -0.2750
     13  N2        11.4630   33.9680   61.7920 N.am    0  <0>0       -0.3059
     14  H10       11.1810   33.3360   61.1120 H       0  <0>0        0.1494
     15  C10       12.1910   33.4970   62.9720 C.3     0  <0>0        0.0716
     16  C14       11.7690   32.0580   63.3130 C.3     0  <0>0        0.0196
     17  C13       13.0400   31.1890   63.2120 C.3     0  <0>0        0.0017
     18  C12       14.2020   32.1920   63.4230 C.3     0  <0>0        0.0017
     19  C11       13.7050   33.4540   62.6750 C.3     0  <0>0        0.0196
     20  S1         8.1570   36.5720   56.8830 S.O2    0  <0>0        0.0932
     21  O2         8.5890   37.9210   56.7840 O.2     0  <0>0       -0.1611
     22  O3         9.0940   35.5250   57.0970 O.2     0  <0>0       -0.1611
     23  C15        7.0700   36.1610   55.4890 C.3     0  <0>0        0.5262
     24  F1         5.9300   36.9700   55.5320 F       0  <0>0       -0.1500
     25  F2         7.7510   36.3790   54.2860 F       0  <0>0       -0.1500
     26  F3         6.6910   34.8170   55.5740 F       0  <0>0       -0.1500
@<TRIPOS>BOND
     1    25    23    1
     2    23    24    1
     3    23    26    1
     4    23    20    1
     5    21    20    2
     6    20    22    2
     7    20     4    1
     8     3     4   ar
     9     3     2   ar
    10     4     5   ar
    11     8     7    1
    12     2     1   ar
    13     5     7    1
    14     5     6   ar
    15     7     9    1
    16    10     9    1
    17    10    11    1
    18     1     6   ar
    19    14    13    1
    20    11    13   am
    21    11    12    2
    22    13    15    1
    23    19    15    1
    24    19    18    1
    25    15    16    1
    26    17    16    1
    27    17    18    1
