@<TRIPOS>MOLECULE
ZINC43560527_replica-1.pdb
 22 25 0 0 0
SMALL
GASTEIGER

@<TRIPOS>ATOM
      1  C9         0.0210   30.8500   55.3660 C.2     0  <0>0        0.3115
      2  N2         0.2390   30.0120   54.3920 N.2     0  <0>0       -0.3109
      3  C10       -0.8410   29.2310   54.2080 C.1     0  <0>0        0.1274
      4  N3        -1.7600   29.5750   55.0750 N.2     0  <0>0       -0.0072
      5  O1        -1.2100   30.6330   55.8460 O.2     0  <0>0       -0.3138
      6  C8         0.9930   31.8860   55.8700 C.3     0  <0>0        0.1673
      7  C7         1.7860   31.3350   57.0670 C.3     0  <0>0        0.0580
      8  C5         1.4420   32.2630   58.2100 C.ar    0  <0>0       -0.0069
      9  C4         0.5640   33.2290   57.7430 C.ar    0  <0>0        0.0410
     10  C6         1.8520   32.2670   59.5290 C.ar    0  <0>0       -0.0030
     11  C3         0.1010   34.2070   58.6270 C.ar    0  <0>0        0.0140
     12  N1         0.2740   33.0510   56.3900 N.pl3   0  <0>0       -0.3258
     13  C2         0.5140   34.2070   59.9420 C.ar    0  <0>0        0.0012
     14  C1         1.3900   33.2380   60.3970 C.ar    0  <0>0       -0.0002
     15  H8        -0.3190   33.6160   55.8690 H       0  <0>0        0.1472
     16  C11       -0.9690   28.1580   53.1910 C.ar    0  <0>0        0.0832
     17  C16       -0.3890   26.9100   53.4140 C.ar    0  <0>0        0.0450
     18  C15       -0.5160   25.9140   52.4660 C.ar    0  <0>0        0.0074
     19 Br          0.5650   26.5810   55.0130 Br      0  <0>0       -0.0483
     20  C14       -1.2100   26.1550   51.2950 C.ar    0  <0>0        0.0005
     21  C13       -1.7830   27.3930   51.0660 C.ar    0  <0>0        0.0007
     22  C12       -1.6660   28.3940   52.0080 C.ar    0  <0>0        0.0116
@<TRIPOS>BOND
     1    21    20   ar
     2    21    22   ar
     3    20    18   ar
     4    22    16   ar
     5    18    17   ar
     6    16    17   ar
     7    16     3    1
     8    17    19    1
     9     3     2    2
    10     3     4    2
    11     2     1    2
    12     4     5    1
    13     1     5    1
    14     1     6    1
    15    15    12    1
    16     6    12    1
    17     6     7    1
    18    12     9    1
    19     7     8    1
    20     9     8   ar
    21     9    11   ar
    22     8    10   ar
    23    11    13   ar
    24    10    14   ar
    25    13    14   ar
