@<TRIPOS>MOLECULE
ZINC33810345_replica-1.pdb
 32 35 0 0 0
SMALL
GASTEIGER

@<TRIPOS>ATOM
      1  C1         0.2540   27.6670   55.0280 C.3     0  <0>0        0.0008
      2  C2        -0.7450   28.6720   54.4510 C.3     0  <0>0        0.0125
      3  C3        -0.1020   30.0590   54.3910 C.3     0  <0>0        0.0414
      4  C4         0.2670   30.5070   55.7840 C.2     0  <0>0        0.0260
      5  C5        -0.4530   30.1110   56.8550 C.2     0  <0>0        0.0265
      6  C6        -0.0850   30.5610   58.2450 C.3     0  <0>0        0.0650
      7  C7         0.8250   31.7540   58.2100 C.3     0  <0>0        0.1516
      8  C8         1.5000   32.0840   57.0770 C.2     0  <0>0        0.1714
      9  N1         2.3280   33.1760   57.0830 N.2     0  <0>0       -0.3697
     10  C9         2.4680   33.9190   58.2160 C.2     0  <0>0        0.2145
     11  N2         1.8170   33.6110   59.3190 N.am    0  <0>0       -0.2540
     12  C10        0.9940   32.5520   59.3610 C.2     0  <0>0        0.2365
     13  O1         0.3960   32.2800   60.3920 O.2     0  <0>0       -0.2742
     14  N3         1.3490   31.3300   55.9360 N.pl3   0  <0>0       -0.2946
     15  C20       -1.5650   29.2630   56.7070 C.2     0  <0>0        0.1703
     16  O2        -2.2020   28.9390   57.6890 O.2     0  <0>0       -0.2916
     17  C21       -1.9790   28.7480   55.3560 C.3     0  <0>0        0.0692
     18  C22       -1.1630   28.2320   53.0470 C.3     0  <0>0        0.0008
     19  H12        2.1090   31.3930   55.1430 H       0  <0>0        0.1540
     20  H21        1.9450   34.2250   60.2220 H       0  <0>0        0.1577
     21  C14        0.6100   29.4320   58.9620 C.ar    0  <0>0       -0.0165
     22  C19        0.0740   28.9200   60.1270 C.ar    0  <0>0        0.0083
     23  C18        0.7100   27.8780   60.7810 C.ar    0  <0>0        0.0679
     24  C17        1.8870   27.3590   60.2730 C.ar    0  <0>0        0.0682
     25 Cl          0.0330   27.2300   62.2430 Cl      0  <0>0       -0.0814
     26  C16        2.4260   27.8770   59.1090 C.ar    0  <0>0        0.0119
     27 Cl          2.6890   26.0570   61.0960 Cl      0  <0>0       -0.0814
     28  C15        1.7870   28.9130   58.4530 C.ar    0  <0>0       -0.0030
     29  S1         3.5450   35.3150   58.2080 S.3     0  <0>0       -0.0621
     30  C11        2.9300   36.1770   56.7400 C.3     0  <0>0        0.0919
     31  C12        4.0110   36.2150   55.6910 C.2     0  <0>0       -0.0140
     32  C13        4.0100   35.3380   54.7180 C.2     0  <0>0       -0.0040
@<TRIPOS>BOND
     1    18     2    1
     2     3     2    1
     3     3     4    1
     4     2     1    1
     5     2    17    1
     6    32    31    2
     7    19    14    1
     8    17    15    1
     9    31    30    1
    10     4    14    1
    11     4     5    2
    12    14     8    1
    13    15     5    1
    14    15    16    2
    15    30    29    1
    16     5     6    1
    17     8     9    2
    18     8     7    1
    19     9    10    2
    20    29    10    1
    21     7     6    1
    22     7    12    1
    23    10    11    1
    24     6    21    1
    25    28    21   ar
    26    28    26   ar
    27    21    22   ar
    28    26    24   ar
    29    11    12   am
    30    11    20    1
    31    12    13    2
    32    22    23   ar
    33    24    23   ar
    34    24    27    1
    35    23    25    1
