@<TRIPOS>MOLECULE
ZINC58475970_replica-1.pdb
 24 25 0 0 0
SMALL
GASTEIGER

@<TRIPOS>ATOM
      1  C5         1.4460   33.2050   58.6640 C.ar    0  <0>0        0.0315
      2  C6         2.4480   32.3820   58.1850 C.ar    0  <0>0        0.0143
      3  C7         2.2070   31.5520   57.1080 C.ar    0  <0>0        0.0155
      4  C8         0.9550   31.5450   56.5060 C.ar    0  <0>0        0.0448
      5  C9        -0.0500   32.3730   56.9900 C.ar    0  <0>0        0.0155
      6  C10        0.1960   33.1960   58.0710 C.ar    0  <0>0        0.0143
      7  N2         0.7070   30.7060   55.4170 N.pl3   0  <0>0       -0.3297
      8  H15        1.2000   29.8770   55.3210 H       0  <0>0        0.1469
      9  C11       -0.2970   31.0810   54.4180 C.3     0  <0>0        0.1351
     10  C12       -1.3950   30.0160   54.3740 C.3     0  <0>0        0.2265
     11  O1        -1.6400   29.6400   53.0170 O.3     0  <0>0       -0.4736
     12  C13       -1.3420   28.3600   52.6680 C.ar    0  <0>0        0.1386
     13  C18       -0.5720   27.5720   53.5110 C.ar    0  <0>0        0.0366
     14  C17       -0.2770   26.2690   53.1580 C.ar    0  <0>0       -0.0011
     15  C16       -0.7370   25.7550   51.9600 C.ar    0  <0>0       -0.0217
     16  C15       -1.5000   26.5400   51.1150 C.ar    0  <0>0       -0.0011
     17  C19       -0.4070   24.3370   51.5740 C.3     0  <0>0        0.0310
     18  C14       -1.8040   27.8420   51.4670 C.ar    0  <0>0        0.0366
     19  N1         1.6930   34.0440   59.7550 N.pl3   0  <0>0       -0.3758
     20  H27        0.8710   34.5960   59.9490 H       0  <0>0        0.1277
     21  C2         2.0260   33.2310   60.9320 C.3     0  <0>0        0.0726
     22  C1         0.7750   33.0410   61.7910 C.3     0  <0>0        0.0215
     23  C3         2.8180   34.9360   59.4410 C.3     0  <0>0        0.0726
     24  C4         2.3450   36.0380   58.4920 C.3     0  <0>0        0.0215
@<TRIPOS>BOND
     1    16    18   ar
     2    16    15   ar
     3    18    12   ar
     4    17    15    1
     5    15    14   ar
     6    12    11    1
     7    12    13   ar
     8    11    10    1
     9    14    13   ar
    10    10     9    1
    11     9     7    1
    12     8     7    1
    13     7     4    1
    14     4     5   ar
    15     4     3   ar
    16     5     6   ar
    17     3     2   ar
    18     6     1   ar
    19     2     1   ar
    20    24    23    1
    21     1    19    1
    22    23    19    1
    23    19    20    1
    24    19    21    1
    25    21    22    1
