@<TRIPOS>MOLECULE
ZINC53067370_replica-1.pdb
 18 19 0 0 0
SMALL
GASTEIGER

@<TRIPOS>ATOM
      1  C7         9.7470   35.8640   60.0710 C.3     0  <0>0        0.1625
      2  N2         9.1950   36.2300   58.9470 N.3     0  <0>0       -0.2788
      3  C8         8.1120   37.1900   58.9250 C.3     0  <0>0        0.0538
      4  C9         7.0360   36.7820   57.8950 C.3     0  <0>0        0.0154
      5  C10        7.6160   37.3190   56.5620 C.3     0  <0>0        0.0014
      6  C11        8.2810   38.6570   56.9500 C.3     0  <0>0        0.0014
      7  C12        8.5990   38.5710   58.4530 C.3     0  <0>0        0.0154
      8  C13        7.4480   37.3310   60.3170 C.3     0  <0>0        0.0746
      9  S1         8.8580   36.7420   61.3470 S.3     0  <0>0       -0.1076
     10  H25        9.5170   35.8530   58.1130 H       0  <0>0        0.1252
     11  N1        10.7890   34.9830   60.2380 N.3     0  <0>0       -0.2784
     12  H14       11.3280   34.7170   59.4760 H       0  <0>0        0.1252
     13  C5        11.0860   34.4430   61.5680 C.3     0  <0>0        0.0557
     14  C6        10.4910   33.0400   61.6940 C.3     0  <0>0        0.0171
     15  C4        12.6030   34.3750   61.7630 C.3     0  <0>0        0.0158
     16  C3        12.9190   34.2130   63.2520 C.3     0  <0>0        0.0014
     17  C2        14.1030   33.2590   63.4200 C.3     0  <0>0        0.0000
     18  C1        13.6010   31.8140   63.3980 C.3     0  <0>0        0.0000
@<TRIPOS>BOND
     1     5     6    1
     2     5     4    1
     3     6     7    1
     4     4     3    1
     5    10     2    1
     6     7     3    1
     7     3     2    1
     8     3     8    1
     9     2     1    1
    10    12    11    1
    11     1    11    1
    12     1     9    1
    13    11    13    1
    14     8     9    1
    15    13    14    1
    16    13    15    1
    17    15    16    1
    18    16    17    1
    19    18    17    1
