@<TRIPOS>MOLECULE
ZINC49147668_replica-1.pdb
 22 22 0 0 0
SMALL
GASTEIGER

@<TRIPOS>ATOM
      1  N1         6.6950   36.0340   57.7440 N.am    0  <0>0       -0.2861
      2  C7         6.2140   35.1080   56.8920 C.2     0  <0>0        0.3041
      3  O1         6.8330   34.8340   55.8810 O.2     0  <0>0       -0.2526
      4  N2         5.0480   34.4870   57.1570 N.am    0  <0>0       -0.2658
      5  H7         6.1660   36.3080   58.5110 H       0  <0>0        0.1512
      6  C2         8.0140   36.6270   57.5160 C.3     0  <0>0        0.1016
      7  C1         7.8760   38.1450   57.3860 C.3     0  <0>0        0.0268
      8  C3         8.9190   36.3030   58.6760 C.ar    0  <0>0        0.0259
      9  S1         9.2660   37.2720   60.1360 S.2     0  <0>0       -0.0782
     10  C6        10.4000   36.1410   60.9250 C.ar    0  <0>0        0.0867
     11  C5        10.4450   35.1200   60.0330 C.ar    0  <0>0        0.0182
     12 Cl         11.2360   36.3080   62.4370 Cl      0  <0>0       -0.0752
     13  C4         9.6850   35.2030   58.8800 C.ar    0  <0>0        0.0052
     14  C8         4.2500   34.8910   58.3180 C.3     0  <0>0        0.0955
     15  C9         3.2610   35.9820   57.9020 C.3     0  <0>0        0.0334
     16  C10        1.9050   35.7200   58.5610 C.3     0  <0>0        0.1158
     17  C11        0.9390   35.1980   57.5290 C.2     0  <0>0        0.3649
     18  O2         0.3650   35.9730   56.7840 O.co2   0  <0>0       -0.2457
     19  O3         0.7320   33.9990   57.4400 O.co2   0  <0>0       -0.2457
     20  C12        4.5780   33.4070   56.2860 C.3     0  <0>0        0.0769
     21  C13        3.8390   32.3620   57.1240 C.3     0  <0>0        0.0216
     22  C14        3.6290   33.9790   55.2310 C.3     0  <0>0        0.0216
@<TRIPOS>BOND
     1    22    20    1
     2     3     2    2
     3    20    21    1
     4    20     4    1
     5    18    17   ar
     6     2     4   am
     7     2     1   am
     8     4    14    1
     9     7     6    1
    10    19    17   ar
    11     6     1    1
    12     6     8    1
    13    17    16    1
    14     1     5    1
    15    15    14    1
    16    15    16    1
    17     8    13   ar
    18     8     9   ar
    19    13    11   ar
    20    11    10   ar
    21     9    10   ar
    22    10    12    1
