@<TRIPOS>MOLECULE
ZINC59888720_replica-1.pdb
 28 31 0 0 0
SMALL
GASTEIGER

@<TRIPOS>ATOM
      1  C14       -0.3620   28.2700   55.6660 C.2     0  <0>0        0.2305
      2  O1        -1.5360   28.1210   55.9300 O.2     0  <0>0       -0.2744
      3  N1         0.3020   29.3450   56.1330 N.am    0  <0>0       -0.2980
      4  H12        1.2420   29.4640   55.9220 H       0  <0>0        0.1498
      5  C7         0.3540   27.2520   54.8170 C.3     0  <0>0        0.1209
      6  C4         0.3200   25.9110   55.5030 C.ar    0  <0>0       -0.0098
      7  C3         0.7000   24.7730   54.8170 C.ar    0  <0>0       -0.0035
      8  C2         0.6710   23.5430   55.4470 C.ar    0  <0>0       -0.0003
      9  C1         0.2610   23.4510   56.7640 C.ar    0  <0>0       -0.0000
     10  C6        -0.1180   24.5890   57.4510 C.ar    0  <0>0       -0.0003
     11  C5        -0.0900   25.8190   56.8200 C.ar    0  <0>0       -0.0035
     12  C8        -0.3290   27.1470   53.4760 C.ar    0  <0>0       -0.0098
     13  C13       -1.0300   28.2260   52.9720 C.ar    0  <0>0       -0.0035
     14  C12       -1.6520   28.1320   51.7420 C.ar    0  <0>0       -0.0003
     15  C11       -1.5810   26.9540   51.0190 C.ar    0  <0>0       -0.0000
     16  C10       -0.8850   25.8740   51.5270 C.ar    0  <0>0       -0.0003
     17  C9        -0.2580   25.9700   52.7550 C.ar    0  <0>0       -0.0035
     18  C15       -0.3930   30.3350   56.9590 C.3     0  <0>0        0.1464
     19  C16        0.3320   31.6530   56.8810 C.2     0  <0>0        0.1284
     20  N3        -0.0960   32.8080   57.3940 N.2     0  <0>0       -0.3918
     21  C22        0.7960   33.7560   57.1370 C.2     0  <0>0        0.1867
     22  N2         1.8240   33.1900   56.4300 N.pl3   0  <0>0       -0.2544
     23  C21        0.8380   35.1300   57.4490 C.2     0  <0>0        0.0485
     24  C17        1.5210   31.8640   56.2740 C.3     0  <0>0        0.1540
     25  C18        2.8860   33.9470   56.0270 C.2     0  <0>0        0.0743
     26  C19        2.9400   35.2640   56.3180 C.2     0  <0>0        0.0496
     27  C20        1.9010   35.8740   57.0420 C.2     0  <0>0        0.0120
     28 Br          4.4210   36.2950   55.7500 Br      0  <0>0       -0.0477
@<TRIPOS>BOND
     1    15    16   ar
     2    15    14   ar
     3    16    17   ar
     4    14    13   ar
     5    17    12   ar
     6    13    12   ar
     7    12     5    1
     8     5     6    1
     9     5     1    1
    10     7     8   ar
    11     7     6   ar
    12     8     9   ar
    13     6    11   ar
    14     1     2    2
    15     1     3   am
    16    28    26    1
    17     4     3    1
    18    25    26    2
    19    25    22    1
    20     3    18    1
    21    24    22    1
    22    24    19    1
    23    26    27    1
    24    22    21    1
    25     9    10   ar
    26    11    10   ar
    27    19    18    1
    28    19    20    2
    29    27    23    2
    30    21    20    2
    31    21    23    1
