@<TRIPOS>MOLECULE
ZINC04132435_replica-1.pdb
 26 27 0 0 0
SMALL
GASTEIGER

@<TRIPOS>ATOM
      1  C11        7.9960   33.6470   59.6600 C.2     0  <0>0        0.2645
      2  O1         7.9650   34.1360   58.5460 O.2     0  <0>0       -0.2684
      3  N1         6.8960   33.0580   60.1680 N.am    0  <0>0       -0.2023
      4  H14        6.9210   32.6690   61.0560 H       0  <0>0        0.1776
      5  N2         5.7160   33.0080   59.4150 N.2     0  <0>0       -0.1773
      6  C12        5.0890   31.8820   59.2650 C.2     0  <0>0        0.1182
      7  C13        3.8470   31.8310   58.4710 C.ar    0  <0>0        0.0299
      8  C18        2.7690   31.0520   58.9020 C.ar    0  <0>0        0.0368
      9  C17        1.6070   31.0110   58.1590 C.ar    0  <0>0        0.0165
     10 Br          2.9000   30.0610   60.5080 Br      0  <0>0       -0.0489
     11  C16        1.5090   31.7310   56.9810 C.ar    0  <0>0        0.0687
     12  C15        2.5770   32.5030   56.5420 C.ar    0  <0>0        0.1398
     13 Br         -0.0850   31.6620   55.9650 Br      0  <0>0       -0.0458
     14  C14        3.7450   32.5570   57.2820 C.ar    0  <0>0        0.0392
     15  O2         2.4750   33.2080   55.3830 O.3     0  <0>0       -0.5050
     16  H18        3.2480   33.1360   54.8090 H       0  <0>0        0.2922
     17  C8         9.2410   33.7000   60.4550 C.ar    0  <0>0        0.0550
     18  C7         9.6090   32.6160   61.2540 C.ar    0  <0>0        0.0042
     19  C6        10.7720   32.6720   61.9930 C.ar    0  <0>0       -0.0041
     20  C5        11.5730   33.7990   61.9450 C.ar    0  <0>0       -0.0228
     21  C10       11.2140   34.8770   61.1550 C.ar    0  <0>0       -0.0041
     22  C9        10.0530   34.8340   60.4100 C.ar    0  <0>0        0.0042
     23  C2        12.8430   33.8530   62.7560 C.3     0  <0>0        0.0189
     24  C1        14.0170   34.2030   61.8410 C.3     0  <0>0        0.0044
     25  C3        12.7080   34.9210   63.8440 C.3     0  <0>0        0.0044
     26  C4        13.0910   32.4910   63.4070 C.3     0  <0>0        0.0044
@<TRIPOS>BOND
     1    16    15    1
     2    15    12    1
     3    13    11    1
     4    12    11   ar
     5    12    14   ar
     6    11     9   ar
     7    14     7   ar
     8     9     8   ar
     9     7     8   ar
    10     7     6    1
    11     2     1    2
    12     8    10    1
    13     6     5    2
    14     5     3    1
    15     1     3   am
    16     1    17    1
    17     3     4    1
    18    22    17   ar
    19    22    21   ar
    20    17    18   ar
    21    21    20   ar
    22    18    19   ar
    23    24    23    1
    24    20    19   ar
    25    20    23    1
    26    23    26    1
    27    23    25    1
