@<TRIPOS>MOLECULE
ZINC01253074_replica-1.pdb
 24 27 0 0 0
SMALL
GASTEIGER

@<TRIPOS>ATOM
      1  C8        -0.1750   28.8970   54.8140 C.2     0  <0>0        0.2230
      2  N1        -0.1520   30.1660   54.4170 N.2     0  <0>0       -0.2101
      3  C9         0.0210   30.9020   55.6280 C.3     0  <0>0        0.2604
      4  C10       -0.7800   29.9510   56.6280 C.3     0  <0>0        0.2668
      5  O1        -0.0790   28.7890   56.1900 O.2     0  <0>0       -0.4482
      6  S1        -0.1280   30.8400   58.0860 S.3     0  <0>0       -0.0339
      7  C11       -0.1580   32.4750   57.3330 C.2     0  <0>0        0.1601
      8  N2        -0.1580   32.2420   56.0160 N.2     0  <0>0       -0.2232
      9  N3        -0.1780   33.6960   57.9710 N.pl3   0  <0>0       -0.2931
     10  H10       -1.0240   34.1020   58.2170 H       0  <0>0        0.1541
     11  C12        1.0230   34.3490   58.2660 C.ar    0  <0>0        0.0497
     12  C17        1.4080   35.4640   57.5310 C.ar    0  <0>0        0.0143
     13  C16        2.5940   36.1070   57.8240 C.ar    0  <0>0       -0.0030
     14  C15        3.3990   35.6430   58.8490 C.ar    0  <0>0       -0.0218
     15  C14        3.0200   34.5340   59.5820 C.ar    0  <0>0       -0.0030
     16  C18        4.6940   36.3470   59.1660 C.3     0  <0>0        0.0310
     17  C13        1.8310   33.8900   59.2980 C.ar    0  <0>0        0.0143
     18  C5        -0.2920   27.7410   53.8960 C.ar    0  <0>0        0.0529
     19  C4         0.2760   26.5140   54.2400 C.ar    0  <0>0        0.0043
     20  C3         0.1640   25.4400   53.3800 C.ar    0  <0>0       -0.0041
     21  C2        -0.5090   25.5790   52.1800 C.ar    0  <0>0       -0.0218
     22  C1        -0.6270   24.4030   51.2460 C.3     0  <0>0        0.0310
     23  C7        -1.0730   26.7940   51.8320 C.ar    0  <0>0       -0.0041
     24  C6        -0.9730   27.8730   52.6870 C.ar    0  <0>0        0.0043
@<TRIPOS>BOND
     1    22    21    1
     2    23    21   ar
     3    23    24   ar
     4    21    20   ar
     5    24    18   ar
     6    20    19   ar
     7    18    19   ar
     8    18     1    1
     9     2     1    2
    10     2     3    1
    11     1     5    1
    12     3     8    1
    13     3     4    1
    14     8     7    2
    15     5     4    1
    16     4     6    1
    17     7     9    1
    18     7     6    1
    19    12    13   ar
    20    12    11   ar
    21    13    14   ar
    22     9    10    1
    23     9    11    1
    24    11    17   ar
    25    14    16    1
    26    14    15   ar
    27    17    15   ar
