@<TRIPOS>MOLECULE
ZINC60214745_replica-1.pdb
 24 26 0 0 0
SMALL
GASTEIGER

@<TRIPOS>ATOM
      1  C1        -1.1570   29.3730   56.6100 C.3     0  <0>0        0.0061
      2  C2        -1.5850   30.0910   55.3290 C.3     0  <0>0        0.0371
      3  C3        -3.0450   30.5350   55.4550 C.3     0  <0>0        0.0061
      4  C4        -0.6970   31.3170   55.1090 C.3     0  <0>0        0.0936
      5  N1        -0.5690   32.0590   56.3660 N.am    0  <0>0       -0.3005
      6  C5         0.6510   32.4060   56.8230 C.2     0  <0>0        0.2472
      7  O1         1.6450   32.1030   56.1920 O.2     0  <0>0       -0.2701
      8  H9        -1.3630   32.3010   56.8690 H       0  <0>0        0.1498
      9  C6         0.7780   33.1510   58.0850 C.ar    0  <0>0        0.0713
     10  C9         0.7820   34.5290   58.1110 C.ar    0  <0>0        0.0921
     11  S1         0.9420   34.9090   59.7380 S.2     0  <0>0       -0.0639
     12 Cl          0.6510   35.6230   56.7700 Cl      0  <0>0       -0.0750
     13  C8         1.0180   33.2720   60.4340 C.ar    0  <0>0        0.0879
     14  C7         0.9090   32.4740   59.3530 C.ar    0  <0>0        0.0239
     15 Cl          1.1890   32.8160   62.1000 Cl      0  <0>0       -0.0751
     16  C10       -1.4450   29.1530   54.1570 C.ar    0  <0>0       -0.0180
     17  C15       -0.7220   27.9820   54.2940 C.ar    0  <0>0        0.0360
     18  C14       -0.5970   27.1160   53.2210 C.ar    0  <0>0        0.1761
     19  C13       -1.1900   27.4340   52.0010 C.ar    0  <0>0        0.1764
     20  O2         0.0460   25.9180   53.0950 O.3     0  <0>0       -0.4346
     21  C12       -1.9070   28.6110   51.8690 C.ar    0  <0>0        0.0399
     22  O3        -0.9190   26.4340   51.1110 O.3     0  <0>0       -0.4346
     23  C11       -2.0340   29.4670   52.9470 C.ar    0  <0>0       -0.0009
     24  C16       -0.5020   25.3110   51.9100 C.3     0  <0>0        0.4294
@<TRIPOS>BOND
     1    22    24    1
     2    22    19    1
     3    21    19   ar
     4    21    23   ar
     5    24    20    1
     6    19    18   ar
     7    23    16   ar
     8    20    18    1
     9    18    17   ar
    10    16    17   ar
    11    16     2    1
    12     4     2    1
    13     4     5    1
    14     2     3    1
    15     2     1    1
    16     7     6    2
    17     5     6   am
    18     5     8    1
    19    12    10    1
    20     6     9    1
    21     9    10   ar
    22     9    14   ar
    23    10    11   ar
    24    14    13   ar
    25    11    13   ar
    26    13    15    1
