@<TRIPOS>MOLECULE
ZINC04995845_replica-1.pdb
 27 31 0 0 0
SMALL
GASTEIGER

@<TRIPOS>ATOM
      1  C1        -0.2090   28.7290   60.9620 C.ar    0  <0>0       -0.0001
      2  C2        -1.4710   28.1640   60.9680 C.ar    0  <0>0        0.0031
      3  C3        -2.1190   27.9120   59.7780 C.ar    0  <0>0        0.0373
      4  C4        -1.5070   28.2240   58.5650 C.ar    0  <0>0        0.1447
      5  C5        -0.2490   28.7970   58.5650 C.ar    0  <0>0        0.0174
      6  C6         0.4000   29.0430   59.7630 C.ar    0  <0>0       -0.0009
      7  C7         0.4440   29.1800   57.2780 C.3     0  <0>0        0.0674
      8  C8         0.3110   30.6540   57.0830 C.ar    0  <0>0        0.0376
      9  C9        -0.0380   31.3570   55.9890 C.ar    0  <0>0        0.0883
     10  N1        -0.0770   32.7240   56.1280 N.ar    0  <0>0       -0.3108
     11  H2        -0.3240   33.2800   55.3730 H       0  <0>0        0.1699
     12  C10        0.2260   33.2950   57.3110 C.ar    0  <0>0        0.2891
     13  O1         0.2420   34.4760   57.6080 O.2     0  <0>0       -0.2596
     14  S1         0.5860   31.9180   58.3040 S.2     0  <0>0       -0.0297
     15  S2        -0.4170   30.5180   54.4630 S.3     0  <0>0       -0.0925
     16  C11        0.2870   28.8680   54.7680 C.3     0  <0>0        0.0866
     17  C12       -0.1590   28.3770   56.1360 C.3     0  <0>0        0.1225
     18  C13       -1.6620   28.4190   56.2670 C.2     0  <0>0        0.3228
     19  O2        -2.3650   28.8560   55.3870 O.2     0  <0>0       -0.2496
     20  O3        -2.1830   27.9450   57.4190 O.3     0  <0>0       -0.4244
     21  C14       -0.1930   27.9120   53.7070 C.ar    0  <0>0       -0.0114
     22  C19       -0.9700   28.3760   52.6600 C.ar    0  <0>0       -0.0011
     23  C18       -1.4110   27.5000   51.6860 C.ar    0  <0>0        0.0293
     24  C17       -1.0750   26.1590   51.7580 C.ar    0  <0>0        0.1401
     25  C16       -0.2960   25.6960   52.8060 C.ar    0  <0>0        0.0293
     26  F1        -1.5060   25.3020   50.8070 F       0  <0>0       -0.2042
     27  C15        0.1470   26.5750   53.7760 C.ar    0  <0>0       -0.0011
@<TRIPOS>BOND
     1    26    24    1
     2    23    24   ar
     3    23    22   ar
     4    24    25   ar
     5    22    21   ar
     6    25    27   ar
     7    21    27   ar
     8    21    16    1
     9    15    16    1
    10    15     9    1
    11    16    17    1
    12    11    10    1
    13    19    18    2
    14     9    10   ar
    15     9     8   ar
    16    10    12   ar
    17    17    18    1
    18    17     7    1
    19    18    20    1
    20     8     7    1
    21     8    14   ar
    22     7     5    1
    23    12    13    2
    24    12    14   ar
    25    20     4    1
    26     5     4   ar
    27     5     6   ar
    28     4     3   ar
    29     6     1   ar
    30     3     2   ar
    31     1     2   ar
