@<TRIPOS>MOLECULE
ZINC39364976_replica-1.pdb
 25 28 0 0 0
SMALL
GASTEIGER

@<TRIPOS>ATOM
      1  C1         6.9370   37.8660   55.9000 C.ar    0  <0>0        0.0013
      2  C2         8.0370   38.6120   56.2820 C.ar    0  <0>0        0.0006
      3  C3         8.6060   38.4190   57.5310 C.ar    0  <0>0        0.0074
      4  C4         8.0700   37.4660   58.3750 C.ar    0  <0>0        0.0388
      5  C5         6.9880   36.6900   57.9890 C.ar    0  <0>0        0.0537
      6  C6         6.4060   36.9090   56.7460 C.ar    0  <0>0        0.0150
      7  N1         6.5120   35.6530   58.8030 N.pl3   0  <0>0       -0.3036
      8  C7         7.3230   34.4310   58.9240 C.3     0  <0>0        0.0921
      9  C8         8.2880   34.5210   60.0770 C.3     0  <0>0        0.0370
     10  C9         9.4090   35.5360   59.9110 C.3     0  <0>0        0.0759
     11  S1         8.7390   37.2230   60.0030 S.3     0  <0>0       -0.1088
     12  C10       10.4240   35.3440   61.0080 C.ar    0  <0>0       -0.0097
     13  C15       10.9520   34.0890   61.2470 C.ar    0  <0>0        0.0285
     14  C14       11.8870   33.9110   62.2510 C.ar    0  <0>0        0.1671
     15  C13       12.2870   34.9910   63.0230 C.ar    0  <0>0        0.1674
     16  F1        12.4080   32.6850   62.4820 F       0  <0>0       -0.2018
     17  C12       11.7530   36.2450   62.7860 C.ar    0  <0>0        0.0317
     18  F2        13.1960   34.8190   64.0070 F       0  <0>0       -0.2018
     19  C11       10.8220   36.4200   61.7790 C.ar    0  <0>0       -0.0010
     20  C16        5.2390   35.7810   59.5170 C.3     0  <0>0        0.1407
     21  C17        4.1750   34.9350   58.8160 C.3     0  <0>0        0.2246
     22  N3         3.4130   34.1590   59.8040 N.2     0  <0>0       -0.2431
     23  C19        2.1800   34.5280   59.7120 C.2     0  <0>0        0.1156
     24  C18        2.0460   35.5590   58.6700 C.2     0  <0>0        0.1156
     25  N2         3.1990   35.8020   58.1440 N.2     0  <0>0       -0.2431
@<TRIPOS>BOND
     1     1     2   ar
     2     1     6   ar
     3     2     3   ar
     4     6     5   ar
     5     3     4   ar
     6     5     4   ar
     7     5     7    1
     8    25    24    2
     9    25    21    1
    10     4    11    1
    11    24    23    1
    12     7     8    1
    13     7    20    1
    14    21    20    1
    15    21    22    1
    16     8     9    1
    17    23    22    2
    18    10    11    1
    19    10     9    1
    20    10    12    1
    21    12    13   ar
    22    12    19   ar
    23    13    14   ar
    24    19    17   ar
    25    14    16    1
    26    14    15   ar
    27    17    15   ar
    28    15    18    1
