@<TRIPOS>MOLECULE
ZINC10237044_replica-1.pdb
 30 33 0 0 0
SMALL
GASTEIGER

@<TRIPOS>ATOM
      1  C11        8.9200   36.2150   58.1250 C.2     0  <0>0        0.0476
      2  C12        8.3060   37.3980   58.1000 C.2     0  <0>0        0.0501
      3  S1         8.6960   38.0500   59.7160 S.3     0  <0>0       -0.0383
      4  C13        9.6570   36.6730   60.3000 C.2     0  <0>0        0.2182
      5  N2         9.6200   35.8060   59.2390 N.pl3   0  <0>0       -0.2532
      6  C14       10.3580   34.7020   59.6500 C.3     0  <0>0        0.1569
      7  C15       10.7930   34.9450   60.9100 C.2     0  <0>0        0.1315
      8  N3        10.3520   36.1660   61.2760 N.2     0  <0>0       -0.3829
      9  C10        8.8430   35.3110   56.9220 C.3     0  <0>0        0.1269
     10  C9         7.5810   35.6040   56.1520 C.2     0  <0>0        0.2284
     11  N1         6.4130   35.0550   56.5390 N.am    0  <0>0       -0.3019
     12  H8         6.3840   34.4720   57.3130 H       0  <0>0        0.1497
     13  O1         7.6170   36.3340   55.1840 O.2     0  <0>0       -0.2747
     14  C2         5.1870   35.3360   55.7870 C.3     0  <0>0        0.0942
     15  C1         4.9250   34.1990   54.7970 C.3     0  <0>0        0.0262
     16  C3         4.0260   35.4480   56.7410 C.ar    0  <0>0       -0.0021
     17  C8         2.7680   35.7610   56.2640 C.ar    0  <0>0        0.0293
     18  C7         1.7010   35.8640   57.1400 C.ar    0  <0>0        0.1671
     19  C6         1.8970   35.6520   58.4960 C.ar    0  <0>0        0.1674
     20  F1         0.4700   36.1690   56.6740 F       0  <0>0       -0.2018
     21  C5         3.1590   35.3390   58.9720 C.ar    0  <0>0        0.0317
     22  F2         0.8570   35.7510   59.3540 F       0  <0>0       -0.2018
     23  C4         4.2210   35.2320   58.0930 C.ar    0  <0>0       -0.0002
     24  C16       11.6190   34.0330   61.7380 C.ar    0  <0>0        0.0273
     25  C21       12.9500   34.3470   62.0080 C.ar    0  <0>0        0.0046
     26  C20       13.7140   33.4950   62.7800 C.ar    0  <0>0        0.0297
     27  C19       13.1610   32.3300   63.2850 C.ar    0  <0>0        0.1401
     28  C18       11.8390   32.0140   63.0200 C.ar    0  <0>0        0.0297
     29  F3        13.9140   31.5000   64.0400 F       0  <0>0       -0.2042
     30  C17       11.0650   32.8620   62.2520 C.ar    0  <0>0        0.0046
@<TRIPOS>BOND
     1    15    14    1
     2    13    10    2
     3    14    11    1
     4    14    16    1
     5    10    11   am
     6    10     9    1
     7    17    16   ar
     8    17    18   ar
     9    11    12    1
    10    20    18    1
    11    16    23   ar
    12     9     1    1
    13    18    19   ar
    14    23    21   ar
    15     2     1    2
    16     2     3    1
    17     1     5    1
    18    19    21   ar
    19    19    22    1
    20     5     6    1
    21     5     4    1
    22     6     7    1
    23     3     4    1
    24     4     8    2
    25     7     8    2
    26     7    24    1
    27    24    25   ar
    28    24    30   ar
    29    25    26   ar
    30    30    28   ar
    31    26    27   ar
    32    28    27   ar
    33    27    29    1
