@<TRIPOS>MOLECULE
ZINC62040003_replica-1.pdb
 34 38 0 0 0
SMALL
GASTEIGER

@<TRIPOS>ATOM
      1  C1         0.1250   30.2990   62.6950 C.3     0  <0>0        0.0379
      2  C2         0.4120   31.3230   61.6260 C.2     0  <0>0        0.0066
      3  C3         0.5490   31.1280   60.2940 C.2     0  <0>0       -0.0052
      4  C4         0.8260   32.2780   59.4400 C.3     0  <0>0        0.1493
      5  C5         1.0110   32.3390   58.0330 C.2     0  <0>0        0.1801
      6  N1         1.2560   33.5080   57.4640 N.2     0  <0>0       -0.3326
      7  C6         1.3350   34.6270   58.1610 C.1     0  <0>0        0.1158
      8  N2         1.1730   34.6320   59.4710 N.2     0  <0>0       -0.3407
      9  C7         0.9260   33.5110   60.1180 C.2     0  <0>0        0.1619
     10  S1         0.6420   33.0810   61.8150 S.3     0  <0>0       -0.0628
     11  C8         1.6170   35.9230   57.4470 C.3     0  <0>0        0.1429
     12  N3         0.9370   31.1900   57.2670 N.pl3   0  <0>0       -0.3089
     13  H7         1.3020   30.3560   57.6060 H       0  <0>0        0.1490
     14  C9         0.3060   31.2290   55.9450 C.3     0  <0>0        0.1102
     15  C10       -0.7330   30.1110   55.8440 C.3     0  <0>0        0.1086
     16  N4        -0.7400   29.5740   54.4800 N.pl3   0  <0>0       -0.3313
     17  H12       -0.9870   30.1440   53.7350 H       0  <0>0        0.1469
     18  C11       -0.3910   28.2440   54.2540 C.ar    0  <0>0        0.0446
     19  C16       -0.7970   27.5930   53.0700 C.ar    0  <0>0        0.0131
     20  C15       -0.4270   26.2420   52.8580 C.ar    0  <0>0        0.0012
     21  C17       -1.5540   28.2610   52.0940 C.ar    0  <0>0        0.0012
     22  C14        0.3280   25.5710   53.8350 C.ar    0  <0>0        0.0001
     23  C20       -0.8250   25.5960   51.6750 C.ar    0  <0>0        0.0000
     24  C13        0.7010   26.2210   54.9720 C.ar    0  <0>0        0.0013
     25  C12        0.3480   27.5500   55.1880 C.ar    0  <0>0        0.0143
     26  C19       -1.5690   26.2710   50.7570 C.ar    0  <0>0        0.0000
     27  C18       -1.9280   27.6020   50.9630 C.ar    0  <0>0        0.0000
     28  C21        0.4210   29.7700   59.7130 C.ar    0  <0>0       -0.0028
     29  C26        1.5600   29.0090   59.4540 C.ar    0  <0>0        0.0020
     30  C25        1.4350   27.7430   58.9200 C.ar    0  <0>0        0.0296
     31  C24        0.1810   27.2340   58.6280 C.ar    0  <0>0        0.1401
     32  C23       -0.9540   27.9880   58.8770 C.ar    0  <0>0        0.0296
     33  F1         0.0640   25.9960   58.0990 F       0  <0>0       -0.2042
     34  C22       -0.8400   29.2520   59.4180 C.ar    0  <0>0        0.0020
@<TRIPOS>BOND
     1    26    27   ar
     2    26    23   ar
     3    27    21   ar
     4    23    20   ar
     5    21    19   ar
     6    20    19   ar
     7    20    22   ar
     8    19    18   ar
     9    17    16    1
    10    22    24   ar
    11    18    16    1
    12    18    25   ar
    13    16    15    1
    14    24    25   ar
    15    15    14    1
    16    14    12    1
    17    12    13    1
    18    12     5    1
    19    11     7    1
    20     6     5    2
    21     6     7    2
    22     5     4    1
    23    33    31    1
    24     7     8    2
    25    31    32   ar
    26    31    30   ar
    27    32    34   ar
    28    30    29   ar
    29    34    28   ar
    30     4     9    1
    31     4     3    1
    32    29    28   ar
    33     8     9    2
    34    28     3    1
    35     9    10    1
    36     3     2    2
    37     2    10    1
    38     2     1    1
