@<TRIPOS>MOLECULE
ZINC38827834_replica-1.pdb
 27 30 0 0 0
SMALL
GASTEIGER

@<TRIPOS>ATOM
      1  N2        -1.1710   30.0560   55.7650 N.am    0  <0>0       -0.2209
      2  C14       -0.1660   30.9380   55.9320 C.2     0  <0>0        0.2553
      3  O1         0.7700   30.9490   55.1530 O.2     0  <0>0       -0.2695
      4  C7        -1.1390   29.1620   54.7080 C.2     0  <0>0        0.2210
      5  N1        -0.6110   27.9610   54.6620 N.2     0  <0>0       -0.3788
      6  C4        -0.6540   27.1920   53.5530 C.2     0  <0>0        0.1495
      7  C3        -1.3070   27.7630   52.4360 C.2     0  <0>0        0.0596
      8  C5        -0.1290   25.8900   53.3700 C.2     0  <0>0        0.0838
      9  C2        -1.4330   27.1090   51.2360 C.2     0  <0>0       -0.0122
     10  S1        -1.8050   29.3500   53.0600 S.3     0  <0>0       -0.0374
     11  C1        -0.9080   25.8370   51.0930 C.3     0  <0>0        0.0536
     12  C6        -0.2610   25.2440   52.1670 C.2     0  <0>0       -0.0074
     13 Cl          0.6900   25.1040   54.6830 Cl      0  <0>0       -0.0799
     14  C8        -2.2980   30.0410   56.7010 C.3     0  <0>0        0.1280
     15  C9        -2.2000   28.8240   57.5850 C.ar    0  <0>0        0.0012
     16  C13       -1.2890   28.7760   58.6300 C.ar    0  <0>0        0.0181
     17  C12       -1.2330   27.6460   59.4230 C.ar    0  <0>0        0.0986
     18  N3        -2.0240   26.6170   59.1880 N.ar    0  <0>0       -0.2423
     19  C11       -2.8970   26.6250   58.2010 C.ar    0  <0>0        0.0986
     20  C10       -3.0150   27.7230   57.3690 C.ar    0  <0>0        0.0181
     21  C15       -0.1990   31.8490   57.0120 C.2     0  <0>0        0.0589
     22  C16        0.6580   31.6990   58.0530 C.2     0  <0>0        0.0111
     23  C17        0.6250   32.6110   59.1350 C.ar    0  <0>0        0.0296
     24  S2         0.6380   34.3930   59.1040 S.2     0  <0>0       -0.0864
     25  C20        0.5780   34.6910   60.7560 C.ar    0  <0>0        0.0354
     26  C19        0.5580   33.4550   61.3160 C.ar    0  <0>0        0.0075
     27  C18        0.5820   32.3500   60.5010 C.ar    0  <0>0        0.0070
@<TRIPOS>BOND
     1    11     9    1
     2    11    12    1
     3     9     7    2
     4    12     8    2
     5     7    10    1
     6     7     6    1
     7    10     4    1
     8     8     6    1
     9     8    13    1
    10     6     5    2
    11     5     4    2
    12     4     1    1
    13     3     2    2
    14     1     2   am
    15     1    14    1
    16     2    21    1
    17    14    15    1
    18    21    22    2
    19    20    15   ar
    20    20    19   ar
    21    15    16   ar
    22    22    23    1
    23    19    18   ar
    24    16    17   ar
    25    24    23   ar
    26    24    25   ar
    27    23    27   ar
    28    18    17   ar
    29    27    26   ar
    30    25    26   ar
