@<TRIPOS>MOLECULE
ZINC14465943_replica-1.pdb
 25 28 0 0 0
SMALL
GASTEIGER

@<TRIPOS>ATOM
      1  C1         1.8410   32.5180   56.2600 C.3     0  <0>0        0.0341
      2  C2         1.2730   31.8550   57.4880 C.ar    0  <0>0        0.0134
      3  C3         1.3770   32.4820   58.7100 C.ar    0  <0>0        0.1401
      4  C4         0.8580   31.8870   59.8460 C.ar    0  <0>0        0.0235
      5  C5         0.2450   30.6520   59.7500 C.ar    0  <0>0       -0.0014
      6  C6         0.1430   30.0130   58.5320 C.ar    0  <0>0       -0.0095
      7  C7         0.6550   30.6080   57.3750 C.ar    0  <0>0        0.0383
      8  N1         0.5720   30.0420   56.1050 N.pl3   0  <0>0       -0.3310
      9  C8        -0.0120   28.6950   56.0160 C.3     0  <0>0        0.0929
     10  C9        -1.1660   28.6450   56.9950 C.3     0  <0>0        0.0262
     11  C10       -0.4910   28.6840   58.4020 C.3     0  <0>0        0.0254
     12  C11       -1.5880   28.2310   59.2930 C.3     0  <0>0        0.0045
     13  C12       -2.3880   27.4250   58.6020 C.3     0  <0>0        0.0004
     14  C13       -1.8910   27.3090   57.1590 C.3     0  <0>0        0.0023
     15  H9         0.1240   30.6740   55.4570 H       0  <0>0        0.1470
     16  C14       -0.5120   28.4420   54.6180 C.ar    0  <0>0        0.0060
     17  C19       -0.2000   27.2580   53.9730 C.ar    0  <0>0        0.0552
     18  C18       -0.6610   27.0280   52.6900 C.ar    0  <0>0        0.0111
     19 Cl          0.7690   26.0630   54.7760 Cl      0  <0>0       -0.0825
     20  C17       -1.4320   27.9800   52.0510 C.ar    0  <0>0        0.0008
     21  C16       -1.7450   29.1630   52.6960 C.ar    0  <0>0       -0.0002
     22  C15       -1.2890   29.3920   53.9800 C.ar    0  <0>0       -0.0018
     23  N2         2.0400   33.8020   58.8080 N.pl3   0  <0>0        0.0574
     24  O1         1.3820   34.8230   58.7160 O.2     0  <0>0       -0.1261
     25  O2         3.2430   33.8670   58.9860 O.2     0  <0>0       -0.1261
@<TRIPOS>BOND
     1    20    18   ar
     2    20    21   ar
     3    18    17   ar
     4    21    22   ar
     5    17    16   ar
     6    17    19    1
     7    22    16   ar
     8    16     9    1
     9    15     8    1
    10     9     8    1
    11     9    10    1
    12     8     7    1
    13     1     2    1
    14    10    14    1
    15    10    11    1
    16    14    13    1
    17     7     2   ar
    18     7     6   ar
    19     2     3   ar
    20    11     6    1
    21    11    12    1
    22     6     5   ar
    23    13    12    1
    24     3    23    1
    25     3     4   ar
    26    24    23    2
    27    23    25    2
    28     5     4   ar
