@<TRIPOS>MOLECULE
ZINC52254593_replica-1.pdb
 20 20 0 0 0
SMALL
GASTEIGER

@<TRIPOS>ATOM
      1  C8        -0.4150   29.1410   54.3940 C.3     0  <0>0        0.1170
      2  C9        -1.3100   30.1690   53.6990 C.3     0  <0>0        0.0345
      3  C4        -0.9260   28.8990   55.8160 C.3     0  <0>0        0.1274
      4  C3        -0.1920   29.8020   56.7730 C.2     0  <0>0        0.3191
      5  O2         0.2480   29.3580   57.8070 O.2     0  <0>0       -0.2500
      6  O1        -0.0270   31.1010   56.4770 O.3     0  <0>0       -0.4484
      7  C2         0.7640   31.8770   57.3800 C.3     0  <0>0        0.2086
      8  C1         0.0310   33.1800   57.7090 C.3     0  <0>0        0.0513
      9  C5        -2.4240   29.2010   55.8780 C.3     0  <0>0        0.0132
     10  C6        -3.0940   28.2550   56.8770 C.3     0  <0>0        0.0007
     11  C7        -2.6350   30.6480   56.3260 C.3     0  <0>0        0.0007
     12  C10       -0.4450   27.8460   53.6230 C.ar    0  <0>0        0.0024
     13  C15       -1.1260   27.7730   52.4220 C.ar    0  <0>0        0.0003
     14  C14       -1.1490   26.5890   51.7110 C.ar    0  <0>0        0.0294
     15  C13       -0.5000   25.4720   52.2070 C.ar    0  <0>0        0.1401
     16  C12        0.1780   25.5440   53.4120 C.ar    0  <0>0        0.0294
     17  F1        -0.5260   24.3110   51.5160 F       0  <0>0       -0.2042
     18  C11        0.2040   26.7310   54.1190 C.ar    0  <0>0        0.0003
     19  O3         0.9250   29.6340   54.4470 O.3     0  <0>0       -0.3821
     20  H21        1.5640   29.0880   53.9690 H       0  <0>0        0.2107
@<TRIPOS>BOND
     1    17    15    1
     2    14    15   ar
     3    14    13   ar
     4    15    16   ar
     5    13    12   ar
     6    16    18   ar
     7    12    18   ar
     8    12     1    1
     9     2     1    1
    10    20    19    1
    11     1    19    1
    12     1     3    1
    13     3     9    1
    14     3     4    1
    15     9    11    1
    16     9    10    1
    17     6     4    1
    18     6     7    1
    19     4     5    2
    20     7     8    1
