@<TRIPOS>MOLECULE
ZINC34724896_replica-1.pdb
 28 31 0 0 0
SMALL
GASTEIGER

@<TRIPOS>ATOM
      1  C1         5.8290   27.6070   59.4760 C.3     0  <0>0        0.0007
      2  C2         5.6490   29.0600   59.9220 C.3     0  <0>0        0.0089
      3  C3         4.2950   29.6220   59.4370 C.3     0  <0>0        0.0330
      4  C4         4.5800   31.0610   59.0980 C.ar    0  <0>0        0.0049
      5  C5         5.8960   31.2930   58.9650 C.ar    0  <0>0       -0.0139
      6  C6         6.2450   32.6830   58.6370 C.ar    0  <0>0        0.0746
      7  C7         7.5890   33.2630   58.4290 C.ar    0  <0>0        0.2660
      8  O1         8.5830   32.5660   58.5230 O.2     0  <0>0       -0.2668
      9  N1         7.6990   34.5700   58.1330 N.ar    0  <0>0       -0.2445
     10  C8         6.6190   35.3630   58.0230 C.ar    0  <0>0        0.3344
     11  O2         6.7690   36.5380   57.7530 O.2     0  <0>0       -0.2462
     12  N2         5.3730   34.8820   58.2030 N.ar    0  <0>0       -0.2757
     13  C9         5.1730   33.5600   58.5080 C.ar    0  <0>0        0.0978
     14  S1         3.8150   32.6340   58.7950 S.2     0  <0>0       -0.0742
     15  C21        6.6510   29.9860   59.2030 C.3     0  <0>0        0.0231
     16  C22        7.0780   29.3710   57.8680 C.3     0  <0>0        0.0047
     17  C14        9.0300   35.1470   57.9260 C.3     0  <0>0        0.1403
     18  C15        9.6200   35.5380   59.2570 C.ar    0  <0>0        0.0008
     19  C20        9.2790   36.7460   59.8360 C.ar    0  <0>0       -0.0001
     20  C19        9.8160   37.1030   61.0580 C.ar    0  <0>0        0.0294
     21  C18       10.7040   36.2550   61.6980 C.ar    0  <0>0        0.1401
     22  C17       11.0490   35.0470   61.1150 C.ar    0  <0>0        0.0294
     23  F1        11.2330   36.6050   62.8910 F       0  <0>0       -0.2042
     24  C16       10.5060   34.6900   59.8940 C.ar    0  <0>0       -0.0001
     25  C10        4.2240   35.7810   58.0740 C.3     0  <0>0        0.1109
     26  C11        3.4900   35.4850   56.7640 C.3     0  <0>0        0.0228
     27  C12        1.9900   35.7190   56.9560 C.3     0  <0>0        0.0020
     28  C13        4.0140   36.4100   55.6640 C.3     0  <0>0        0.0020
@<TRIPOS>BOND
     1    28    26    1
     2    26    27    1
     3    26    25    1
     4    11    10    2
     5    16    15    1
     6    17     9    1
     7    17    18    1
     8    10     9   ar
     9    10    12   ar
    10    25    12    1
    11     9     7   ar
    12    12    13   ar
    13     7     8    2
    14     7     6   ar
    15    13     6   ar
    16    13    14   ar
    17     6     5   ar
    18    14     4   ar
    19     5     4   ar
    20     5    15    1
    21     4     3    1
    22    15     2    1
    23    18    19   ar
    24    18    24   ar
    25     3     2    1
    26     1     2    1
    27    19    20   ar
    28    24    22   ar
    29    20    21   ar
    30    22    21   ar
    31    21    23    1
