@<TRIPOS>MOLECULE
ZINC37953026_replica-1.pdb
 21 22 0 0 0
SMALL
GASTEIGER

@<TRIPOS>ATOM
      1  C8         7.5020   37.0560   58.2850 C.3     0  <0>0        0.1697
      2  N1         6.7340   35.8200   58.1140 N.pl3   0  <0>0       -0.3254
      3  H10        7.1780   34.9610   58.1740 H       0  <0>0        0.1472
      4  C5         5.3570   35.8810   57.8660 C.ar    0  <0>0        0.0452
      5  C4         4.8860   35.8950   56.5610 C.ar    0  <0>0        0.0174
      6  C3         3.5280   35.9550   56.3160 C.ar    0  <0>0        0.0382
      7  C2         2.6340   36.0020   57.3770 C.ar    0  <0>0        0.1388
      8  C7         3.1040   35.9930   58.6820 C.ar    0  <0>0        0.0382
      9  C6         4.4620   35.9280   58.9260 C.ar    0  <0>0        0.0174
     10  O1         1.2970   36.0610   57.1360 O.3     0  <0>0       -0.4714
     11  C1         0.5040   34.9700   57.6070 C.3     0  <0>0        0.2525
     12  C9         8.7890   36.7540   59.0560 C.3     0  <0>0        0.0335
     13  C14        8.6890   37.3330   60.4680 C.3     0  <0>0        0.0279
     14  C13        9.8160   36.8200   61.3180 C.2     0  <0>0       -0.0306
     15  C12       10.5400   35.7900   61.0180 C.2     0  <0>0       -0.0307
     16  C11       10.3570   34.9650   59.7770 C.3     0  <0>0        0.0258
     17  C10        8.9820   35.2360   59.1620 C.3     0  <0>0        0.0072
     18  C15        7.8480   37.6230   56.9320 C.2     0  <0>0        0.3350
     19  O2         7.5610   38.7650   56.6640 O.2     0  <0>0       -0.2483
     20  O3         8.4770   36.8580   56.0250 O.3     0  <0>0       -0.4433
     21  C16        7.7380   36.5000   54.8550 C.3     0  <0>0        0.2557
@<TRIPOS>BOND
     1    21    20    1
     2    20    18    1
     3     6     5   ar
     4     6     7   ar
     5     5     4   ar
     6    19    18    2
     7    18     1    1
     8    10     7    1
     9    10    11    1
    10     7     8   ar
    11     4     2    1
    12     4     9   ar
    13     2     3    1
    14     2     1    1
    15     1    12    1
    16     8     9   ar
    17    12    17    1
    18    12    13    1
    19    17    16    1
    20    16    15    1
    21    13    14    1
    22    15    14    2
