@<TRIPOS>MOLECULE
ZINC36955284_replica-1.pdb
 18 18 0 0 0
SMALL
GASTEIGER

@<TRIPOS>ATOM
      1  C6        10.8280   35.1550   60.7370 C.ar    0  <0>0        0.0566
      2  C7        10.0880   34.8890   59.5930 C.ar    0  <0>0        0.0335
      3  C8         9.1440   35.7990   59.1570 C.ar    0  <0>0        0.1070
      4  C9         8.9360   36.9720   59.8570 C.ar    0  <0>0        0.0193
      5  C10        9.6710   37.2410   60.9970 C.ar    0  <0>0        0.0140
      6  C11       10.6140   36.3330   61.4430 C.ar    0  <0>0        0.0708
      7 Cl         11.5320   36.6670   62.8780 Cl      0  <0>0       -0.0810
      8  N1        11.7840   34.2370   61.1810 N.pl3   0  <0>0       -0.3334
      9  H12       12.5940   34.0940   60.6680 H       0  <0>0        0.1468
     10  C4        11.5620   33.4900   62.4220 C.3     0  <0>0        0.0691
     11  C5        10.5550   32.3660   62.1680 C.3     0  <0>0        0.0212
     12  C3        12.8860   32.8910   62.9010 C.3     0  <0>0        0.0195
     13  C2        14.0430   33.7840   62.4470 C.3     0  <0>0        0.0017
     14  C1        15.1580   33.7440   63.4940 C.3     0  <0>0        0.0001
     15  S1         8.2030   35.4620   57.7050 S.O2    0  <0>0        0.0105
     16  O1         8.5170   36.5250   56.8160 O.2     0  <0>0       -0.1686
     17  O2         8.5230   34.1180   57.3700 O.2     0  <0>0       -0.1686
     18  C12        6.4720   35.5810   58.2330 C.3     0  <0>0        0.1816
@<TRIPOS>BOND
     1    16    15    2
     2    17    15    2
     3    15    18    1
     4    15     3    1
     5     3     2   ar
     6     3     4   ar
     7     2     1   ar
     8     4     5   ar
     9     9     8    1
    10     1     8    1
    11     1     6   ar
    12     5     6   ar
    13     8    10    1
    14     6     7    1
    15    11    10    1
    16    10    12    1
    17    13    12    1
    18    13    14    1
