@<TRIPOS>MOLECULE
ZINC32230364_replica-1.pdb
 25 26 0 0 0
SMALL
GASTEIGER

@<TRIPOS>ATOM
      1  C10        9.2400   37.8710   60.1590 C.3     0  <0>0        0.1206
      2  C9         9.1580   36.8370   61.2820 C.3     0  <0>0        0.1735
      3  C8        10.5710   36.4280   61.7040 C.3     0  <0>0        0.2361
      4  O1        10.9720   35.2710   60.9690 O.3     0  <0>0       -0.4728
      5  C5        11.5540   34.2640   61.6710 C.ar    0  <0>0        0.1387
      6  C4        12.8740   34.3770   62.0840 C.ar    0  <0>0        0.0366
      7  C3        13.4630   33.3520   62.7990 C.ar    0  <0>0       -0.0011
      8  C2        12.7390   32.2150   63.1030 C.ar    0  <0>0       -0.0217
      9  C1        13.3840   31.0990   63.8840 C.3     0  <0>0        0.0310
     10  C7        11.4230   32.1000   62.6940 C.ar    0  <0>0       -0.0011
     11  C6        10.8270   33.1250   61.9840 C.ar    0  <0>0        0.0366
     12  O2         8.4720   37.4020   62.4010 O.3     0  <0>0       -0.3791
     13  H27        8.9070   38.2580   62.9380 H       0  <0>0        0.2106
     14  N1         7.9070   38.4240   59.9040 N.pl3   0  <0>0       -0.3306
     15  H13        7.6800   39.4620   60.1870 H       0  <0>0        0.1469
     16  C11        6.9260   37.6310   59.3050 C.ar    0  <0>0        0.0447
     17  C16        7.1000   37.1730   58.0050 C.ar    0  <0>0        0.0140
     18  C15        6.1310   36.3840   57.4170 C.ar    0  <0>0       -0.0030
     19  C14        4.9880   36.0500   58.1210 C.ar    0  <0>0       -0.0227
     20  C13        4.8120   36.5050   59.4150 C.ar    0  <0>0       -0.0030
     21  C12        5.7770   37.2940   60.0090 C.ar    0  <0>0        0.0140
     22  C17        3.9330   35.1900   57.4760 C.3     0  <0>0        0.0189
     23  C18        4.5120   33.8040   57.1830 C.3     0  <0>0        0.0044
     24  C19        2.7370   35.0540   58.4220 C.3     0  <0>0        0.0044
     25  C20        3.4750   35.8380   56.1680 C.3     0  <0>0        0.0044
@<TRIPOS>BOND
     1    25    22    1
     2    23    22    1
     3    18    17   ar
     4    18    19   ar
     5    22    19    1
     6    22    24    1
     7    17    16   ar
     8    19    20   ar
     9    16    14    1
    10    16    21   ar
    11    20    21   ar
    12    14     1    1
    13    14    15    1
    14     1     2    1
    15     4     5    1
    16     4     3    1
    17     2     3    1
    18     2    12    1
    19     5    11   ar
    20     5     6   ar
    21    11    10   ar
    22     6     7   ar
    23    12    13    1
    24    10     8   ar
    25     7     8   ar
    26     8     9    1
