@<TRIPOS>MOLECULE
ZINC14248151_replica-1.pdb
 29 30 0 0 0
SMALL
GASTEIGER

@<TRIPOS>ATOM
      1  C3         2.0460   33.5180   56.2450 C.2     0  <0>0        0.2407
      2  O1         1.5750   34.5970   56.5380 O.2     0  <0>0       -0.2733
      3  N1         3.1400   33.4500   55.4620 N.am    0  <0>0       -0.2991
      4  H5         3.5170   32.5880   55.2280 H       0  <0>0        0.1498
      5  C2         1.4080   32.2530   56.7580 C.3     0  <0>0        0.1511
      6  C1         2.2250   31.7100   57.9320 C.3     0  <0>0        0.0313
      7  N2         1.3710   31.2540   55.6860 N.am    0  <0>0       -0.2640
      8  C12        0.1890   30.7820   55.2460 C.2     0  <0>0        0.4023
      9  O2        -0.8480   31.1830   55.7380 O.2     0  <0>0       -0.2264
     10  H12        2.1990   30.9340   55.2940 H       0  <0>0        0.1532
     11  O3         0.1560   29.8630   54.2610 O.3     0  <0>0       -0.4297
     12  C13       -1.1500   29.5090   53.7340 C.3     0  <0>0        0.2367
     13  C14       -1.0540   28.2020   52.9900 C.ar    0  <0>0        0.0213
     14  C19       -1.6970   28.0500   51.7750 C.ar    0  <0>0       -0.0007
     15  C18       -1.6090   26.8500   51.0930 C.ar    0  <0>0       -0.0002
     16  C17       -0.8790   25.8040   51.6260 C.ar    0  <0>0       -0.0000
     17  C16       -0.2380   25.9570   52.8410 C.ar    0  <0>0       -0.0002
     18  C15       -0.3210   27.1570   53.5200 C.ar    0  <0>0       -0.0007
     19  C4         3.7620   34.6800   54.9640 C.3     0  <0>0        0.1164
     20  C5         4.9950   34.9840   55.7730 C.ar    0  <0>0       -0.0026
     21  C10        5.9630   34.0130   55.9480 C.ar    0  <0>0       -0.0027
     22  C9         7.0950   34.2910   56.6910 C.ar    0  <0>0        0.0036
     23  C8         7.2590   35.5410   57.2590 C.ar    0  <0>0        0.0714
     24  C7         6.2920   36.5120   57.0840 C.ar    0  <0>0        0.0036
     25  C6         5.1600   36.2340   56.3410 C.ar    0  <0>0       -0.0027
     26  C11        8.4940   35.8440   58.0690 C.3     0  <0>0        0.4186
     27  F1         8.9610   37.1220   57.7450 F       0  <0>0       -0.1659
     28  F2         8.1830   35.7930   59.4320 F       0  <0>0       -0.1659
     29  F3         9.4830   34.8990   57.7810 F       0  <0>0       -0.1659
@<TRIPOS>BOND
     1    15    16   ar
     2    15    14   ar
     3    16    17   ar
     4    14    13   ar
     5    17    18   ar
     6    13    18   ar
     7    13    12    1
     8    12    11    1
     9    11     8    1
    10    19     3    1
    11    19    20    1
    12     4     3    1
    13     8     7   am
    14     8     9    2
    15    10     7    1
    16     3     1   am
    17     7     5    1
    18    20    21   ar
    19    20    25   ar
    20    21    22   ar
    21     1     2    2
    22     1     5    1
    23    25    24   ar
    24    22    23   ar
    25     5     6    1
    26    24    23   ar
    27    23    26    1
    28    27    26    1
    29    29    26    1
    30    26    28    1
