@<TRIPOS>MOLECULE
ZINC37934709_replica-1.pdb
 21 22 0 0 0
SMALL
GASTEIGER

@<TRIPOS>ATOM
      1  N1         0.7050   30.1180   56.2160 N.4     0  <0>0        0.3899
      2  H10        0.2730   30.9490   55.8390 H       0  <0>0       -0.0838
      3  H24        1.6320   30.0170   55.8310 H       0  <0>0       -0.0838
      4  C6         0.7910   30.2330   57.6780 C.3     0  <0>0       -0.0027
      5  C7        -0.2830   29.3540   58.3240 C.3     0  <0>0       -0.0157
      6  C5         0.5770   31.6680   58.0830 C.ar    0  <0>0        0.1026
      7  C4         0.1860   32.6660   57.2710 C.ar    0  <0>0        0.0336
      8  C3         0.1120   33.8350   58.0630 C.ar    0  <0>0        0.0356
      9  C2         0.4620   33.4820   59.3120 C.ar    0  <0>0        0.1227
     10  C1         0.5290   34.4040   60.5020 C.3     0  <0>0        0.0725
     11  O1         0.7480   32.1690   59.3180 O.2     0  <0>0       -0.4641
     12  C8        -0.1030   28.9430   55.8640 C.3     0  <0>0       -0.0768
     13  C9        -1.0910   29.3160   54.7570 C.3     0  <0>0       -0.0004
     14  C10       -2.5130   29.3250   55.3230 C.3     0  <0>0        0.0022
     15  C11       -0.7490   30.7060   54.2160 C.3     0  <0>0        0.0022
     16  C12       -1.0010   28.3070   53.6410 C.ar    0  <0>0       -0.0248
     17  C17       -0.3010   27.1290   53.8300 C.ar    0  <0>0       -0.0044
     18  C16       -0.2220   26.2020   52.8080 C.ar    0  <0>0       -0.0003
     19  C15       -0.8340   26.4550   51.5950 C.ar    0  <0>0       -0.0000
     20  C14       -1.5290   27.6350   51.4050 C.ar    0  <0>0       -0.0003
     21  C13       -1.6120   28.5610   52.4280 C.ar    0  <0>0       -0.0044
@<TRIPOS>BOND
     1    20    19   ar
     2    20    21   ar
     3    19    18   ar
     4    21    16   ar
     5    18    17   ar
     6    16    17   ar
     7    16    13    1
     8    15    13    1
     9    13    14    1
    10    13    12    1
    11     3     1    1
    12     2     1    1
    13    12     1    1
    14     1     4    1
    15     7     8   ar
    16     7     6   ar
    17     4     6    1
    18     4     5    1
    19     8     9   ar
    20     6    11   ar
    21     9    11   ar
    22     9    10    1
