@<TRIPOS>MOLECULE
ZINC18196740_replica-1.pdb
 26 30 0 0 0
SMALL
GASTEIGER

@<TRIPOS>ATOM
      1  C7         0.4770   27.4850   56.6200 C.3     0  <0>0        0.0717
      2  C8        -0.1190   27.7350   55.2640 C.ar    0  <0>0        0.0024
      3  C9         0.0470   26.8010   54.2570 C.ar    0  <0>0        0.0378
      4  C10       -0.5020   27.0210   53.0050 C.ar    0  <0>0        0.1762
      5  C11       -1.2240   28.1860   52.7560 C.ar    0  <0>0        0.1776
      6  C12       -1.3900   29.1210   53.7620 C.ar    0  <0>0        0.0545
      7  C13       -0.8370   28.8960   55.0160 C.ar    0  <0>0        0.0479
      8  N1        -0.9960   29.8380   56.0340 N.pl3   0  <0>0       -0.3161
      9  C14       -0.1400   29.8540   57.0980 C.2     0  <0>0        0.0246
     10  C15        0.5880   28.7610   57.4160 C.2     0  <0>0        0.0296
     11  C16        1.4760   28.7740   58.5080 C.2     0  <0>0        0.1706
     12  O1         2.1230   27.7780   58.7660 O.2     0  <0>0       -0.2916
     13  C17        1.6360   30.0000   59.3630 C.3     0  <0>0        0.0693
     14  C18        0.3260   30.7940   59.3510 C.3     0  <0>0        0.0141
     15  C19       -0.0230   31.1280   57.8980 C.3     0  <0>0        0.0414
     16  O2        -1.6560   28.1640   51.4610 O.3     0  <0>0       -0.4346
     17  C20       -1.5390   26.7920   51.0400 C.3     0  <0>0        0.4294
     18  O3        -0.4800   26.2700   51.8640 O.3     0  <0>0       -0.4346
     19  H8        -1.7190   30.4830   55.9870 H       0  <0>0        0.1519
     20  C6        -0.3970   26.5130   57.3700 C.ar    0  <0>0       -0.0141
     21  C1        -1.5990   26.9350   57.9040 C.ar    0  <0>0       -0.0031
     22  C2        -2.4030   26.0420   58.5890 C.ar    0  <0>0        0.0064
     23  C3        -1.9990   24.7290   58.7470 C.ar    0  <0>0        0.0345
     24  C4        -0.7930   24.3080   58.2160 C.ar    0  <0>0        0.0064
     25 Br         -3.0940   23.5080   59.6890 Br      0  <0>0       -0.0490
     26  C5         0.0080   25.2000   57.5270 C.ar    0  <0>0       -0.0031
@<TRIPOS>BOND
     1    17    16    1
     2    17    18    1
     3    16     5    1
     4    18     4    1
     5     5     4   ar
     6     5     6   ar
     7     4     3   ar
     8     6     7   ar
     9     3     2   ar
    10     7     2   ar
    11     7     8    1
    12     2     1    1
    13    19     8    1
    14     8     9    1
    15     1    20    1
    16     1    10    1
    17     9    10    2
    18     9    15    1
    19    20    26   ar
    20    20    21   ar
    21    10    11    1
    22    26    24   ar
    23    15    14    1
    24    21    22   ar
    25    24    23   ar
    26    11    12    2
    27    11    13    1
    28    22    23   ar
    29    23    25    1
    30    14    13    1
