@<TRIPOS>MOLECULE
ZINC05003010_replica-1.pdb
 22 24 0 0 0
SMALL
GASTEIGER

@<TRIPOS>ATOM
      1  C7         4.8590   35.6390   58.0640 C.2     0  <0>0        0.2843
      2  N1         6.0710   35.8550   58.4920 N.2     0  <0>0       -0.3648
      3  C8         6.7950   36.4500   57.5010 C.2     0  <0>0        0.1924
      4  C9         8.1190   36.8410   57.5510 C.3     0  <0>0        0.0953
      5  C16        5.8660   36.5920   56.3670 C.2     0  <0>0        0.3738
      6  O2         6.1000   37.0790   55.2760 O.2     0  <0>0       -0.2419
      7  O3         4.7000   36.0640   56.7950 O.3     0  <0>0       -0.3911
      8  C10        8.9410   36.4900   58.7100 C.ar    0  <0>0        0.0188
      9  C15        9.0670   37.3860   59.7870 C.ar    0  <0>0        0.1305
     10  C14        9.8540   37.0450   60.8740 C.ar    0  <0>0        0.0430
     11  C13       10.5080   35.8280   60.9020 C.ar    0  <0>0        0.0376
     12  C12       10.3850   34.9380   59.8440 C.ar    0  <0>0        0.0066
     13 Br         11.5800   35.3720   62.3930 Br      0  <0>0       -0.0489
     14  C11        9.6080   35.2570   58.7540 C.ar    0  <0>0       -0.0004
     15  O1         8.4230   38.5800   59.7580 O.3     0  <0>0       -0.5058
     16  H10        8.1830   38.8760   58.8700 H       0  <0>0        0.2922
     17  C4         3.7920   35.0090   58.8690 C.ar    0  <0>0        0.0665
     18  C3         2.4680   35.4290   58.7310 C.ar    0  <0>0        0.0058
     19  C2         1.4780   34.8360   59.4850 C.ar    0  <0>0        0.0002
     20  C1         1.7940   33.8270   60.3780 C.ar    0  <0>0        0.0000
     21  C6         3.1040   33.4070   60.5200 C.ar    0  <0>0        0.0002
     22  C5         4.1040   33.9870   59.7680 C.ar    0  <0>0        0.0058
@<TRIPOS>BOND
     1     6     5    2
     2     5     7    1
     3     5     3    1
     4     7     1    1
     5     3     4    1
     6     3     2    2
     7     4     8    1
     8     1     2    2
     9     1    17    1
    10     8    14   ar
    11     8     9   ar
    12    18    17   ar
    13    18    19   ar
    14    14    12   ar
    15    17    22   ar
    16    16    15    1
    17    19    20   ar
    18    15     9    1
    19    22    21   ar
    20     9    10   ar
    21    12    11   ar
    22    20    21   ar
    23    10    11   ar
    24    11    13    1
