@<TRIPOS>MOLECULE
ZINC66794848_replica-1.pdb
 21 23 0 0 0
SMALL
GASTEIGER

@<TRIPOS>ATOM
      1  C7        10.7610   35.0900   60.7840 C.3     0  <0>0        0.1535
      2  C8         9.5510   34.4120   60.1360 C.3     0  <0>0        0.1080
      3  N1         8.7960   35.4060   59.3590 N.3     0  <0>0       -0.2508
      4  C9         8.3540   36.5120   60.2200 C.3     0  <0>0        0.1059
      5  C10        9.5760   37.1690   60.8670 C.3     0  <0>0        0.1599
      6  O1        10.3150   36.1820   61.5910 O.3     0  <0>0       -0.3489
      7  C6        11.4940   34.0940   61.6450 C.ar    0  <0>0        0.0068
      8  C1        10.8520   32.9480   62.0760 C.ar    0  <0>0       -0.0010
      9  C2        11.5250   32.0340   62.8660 C.ar    0  <0>0        0.0120
     10  C3        12.8400   32.2650   63.2250 C.ar    0  <0>0        0.0682
     11  C4        13.4830   33.4130   62.7940 C.ar    0  <0>0        0.0680
     12 Cl         13.6830   31.1170   64.2170 Cl      0  <0>0       -0.0814
     13  C5        12.8100   34.3270   62.0030 C.ar    0  <0>0        0.0104
     14 Cl         15.1350   33.7040   63.2440 Cl      0  <0>0       -0.0814
     15  C11        7.6560   34.7830   58.6740 C.3     0  <0>0        0.1697
     16  N2         7.3000   35.5780   57.4960 N.am    0  <0>0       -0.2828
     17  C14        6.0280   35.9820   57.3140 C.2     0  <0>0        0.1120
     18  S1         6.0270   36.8400   55.7500 S.3     0  <0>0       -0.0905
     19  S2         4.6980   35.7270   58.3610 S.2     0  <0>0       -0.0279
     20  C13        7.6860   36.3050   55.1560 C.3     0  <0>0        0.0853
     21  C12        8.3190   35.9270   56.5220 C.3     0  <0>0        0.1050
@<TRIPOS>BOND
     1    20    18    1
     2    20    21    1
     3    18    17    1
     4    21    16    1
     5    17    16    1
     6    17    19    2
     7    16    15    1
     8    15     3    1
     9     3     2    1
    10     3     4    1
    11     2     1    1
    12     4     5    1
    13     1     6    1
    14     1     7    1
    15     5     6    1
    16     7    13   ar
    17     7     8   ar
    18    13    11   ar
    19     8     9   ar
    20    11    10   ar
    21    11    14    1
    22     9    10   ar
    23    10    12    1
