@<TRIPOS>MOLECULE
ZINC03418745_replica-1.pdb
 25 29 0 0 0
SMALL
GASTEIGER

@<TRIPOS>ATOM
      1  C1         6.9860   30.0980   57.4610 C.3     0  <0>0        0.1429
      2  C2         5.9310   31.1050   57.8410 C.1     0  <0>0        0.1158
      3  N1         5.9780   32.3170   57.3160 N.2     0  <0>0       -0.3324
      4  C3         5.0830   33.2470   57.6090 C.2     0  <0>0        0.1831
      5  C4         4.0350   32.9320   58.5180 C.3     0  <0>0        0.1457
      6  C5         2.9400   33.7970   58.9870 C.2     0  <0>0       -0.0274
      7  C6         2.0690   33.2580   59.8530 C.2     0  <0>0        0.0023
      8  S1         2.6350   31.5890   60.0990 S.3     0  <0>0       -0.0631
      9  C7         4.0460   31.6220   59.0290 C.2     0  <0>0        0.1616
     10  N2         4.9760   30.7530   58.6790 N.2     0  <0>0       -0.3407
     11  C8         0.9960   34.2310   60.2630 C.3     0  <0>0        0.0327
     12  C9         1.0580   35.3460   59.1960 C.3     0  <0>0        0.0096
     13  C10        2.5210   35.2470   58.7240 C.3     0  <0>0        0.0234
     14  N3         5.1650   34.5050   57.0390 N.pl3   0  <0>0       -0.2818
     15  C11        4.5840   34.5110   55.6900 C.3     0  <0>0        0.1145
     16  C12        6.5530   34.9840   57.0180 C.3     0  <0>0        0.0971
     17  C17        6.6900   36.1540   57.9560 C.ar    0  <0>0       -0.0082
     18  C16        7.4130   37.2800   57.6350 C.ar    0  <0>0       -0.0246
     19  C18        6.0540   36.0730   59.1890 C.ar    0  <0>0       -0.0030
     20  C15        8.1220   37.4410   56.3160 C.3     0  <0>0        0.0262
     21  C21        7.5050   38.3230   58.5490 C.ar    0  <0>0       -0.0045
     22  C14        8.2890   36.0870   55.6280 C.3     0  <0>0        0.0067
     23  C13        6.9230   35.3930   55.5920 C.3     0  <0>0        0.0247
     24  C20        6.8740   38.2380   59.7730 C.ar    0  <0>0       -0.0003
     25  C19        6.1440   37.1090   60.0940 C.ar    0  <0>0       -0.0003
@<TRIPOS>BOND
     1    23    22    1
     2    23    16    1
     3    22    20    1
     4    15    14    1
     5    20    18    1
     6    16    14    1
     7    16    17    1
     8    14     4    1
     9     3     4    2
    10     3     2    2
    11     1     2    1
    12     4     5    1
    13    18    17   ar
    14    18    21   ar
    15     2    10    2
    16    17    19   ar
    17     5     6    1
    18     5     9    1
    19    21    24   ar
    20    10     9    2
    21    13     6    1
    22    13    12    1
    23     6     7    2
    24     9     8    1
    25    19    25   ar
    26    12    11    1
    27    24    25   ar
    28     7     8    1
    29     7    11    1
