@<TRIPOS>MOLECULE
ZINC13086166_replica-1.pdb
 28 30 0 0 0
SMALL
GASTEIGER

@<TRIPOS>ATOM
      1  N1         6.4850   34.3730   57.9900 N.pl3   0  <0>0       -0.1473
      2  C3         6.7770   35.6010   58.5920 C.ar    0  <0>0        0.0725
      3  C2         7.3550   36.6210   57.8470 C.ar    0  <0>0        0.0041
      4  C1         7.6680   36.4050   56.3880 C.3     0  <0>0        0.0333
      5  C7         7.6370   37.8360   58.4430 C.ar    0  <0>0        0.0549
      6  C6         7.3550   38.0310   59.7830 C.ar    0  <0>0        0.0112
      7 Cl          8.3520   39.1130   57.5110 Cl      0  <0>0       -0.0825
      8  C5         6.7850   37.0150   60.5290 C.ar    0  <0>0        0.0022
      9  C4         6.4950   35.8010   59.9370 C.ar    0  <0>0        0.0163
     10  C8         5.2400   34.1540   57.4410 C.2     0  <0>0        0.1775
     11  S1         3.8950   33.8540   58.5350 S.3     0  <0>0       -0.0785
     12  C11        2.5110   34.1010   57.3920 C.3     0  <0>0        0.0670
     13  C10        2.8150   33.3180   56.1080 C.3     0  <0>0        0.0384
     14  C9         3.9440   34.0140   55.3570 C.3     0  <0>0        0.1284
     15  N2         5.1320   34.1870   56.1660 N.2     0  <0>0       -0.2494
     16  S2         7.6330   33.1820   57.9370 S.O2    0  <0>0        0.0817
     17  O1         8.2710   33.2890   56.6720 O.2     0  <0>0       -0.1494
     18  O2         6.9990   31.9870   58.3710 O.2     0  <0>0       -0.1494
     19  C12        8.8490   33.5770   59.1480 C.ar    0  <0>0        0.1258
     20  C17        8.9550   32.8140   60.2960 C.ar    0  <0>0        0.0199
     21  C16        9.9100   33.1240   61.2470 C.ar    0  <0>0       -0.0029
     22  C15       10.7580   34.1970   61.0500 C.ar    0  <0>0       -0.0227
     23  C14       10.6520   34.9610   59.9030 C.ar    0  <0>0       -0.0029
     24  C13        9.6980   34.6500   58.9510 C.ar    0  <0>0        0.0199
     25  C18       11.7990   34.5350   62.0870 C.3     0  <0>0        0.0189
     26  C19       11.6640   33.5800   63.2740 C.3     0  <0>0        0.0044
     27  C20       13.1940   34.3930   61.4750 C.3     0  <0>0        0.0044
     28  C21       11.5950   35.9740   62.5630 C.3     0  <0>0        0.0044
@<TRIPOS>BOND
     1    14    13    1
     2    14    15    1
     3    13    12    1
     4    15    10    2
     5     4     3    1
     6    17    16    2
     7    12    11    1
     8    10     1    1
     9    10    11    1
    10     7     5    1
    11     3     5   ar
    12     3     2   ar
    13    16     1    1
    14    16    18    2
    15    16    19    1
    16     1     2    1
    17     5     6   ar
    18     2     9   ar
    19    24    19   ar
    20    24    23   ar
    21    19    20   ar
    22     6     8   ar
    23    23    22   ar
    24     9     8   ar
    25    20    21   ar
    26    22    21   ar
    27    22    25    1
    28    27    25    1
    29    25    28    1
    30    25    26    1
