@<TRIPOS>MOLECULE
ZINC32912159_replica-1.pdb
 24 24 0 0 0
SMALL
GASTEIGER

@<TRIPOS>ATOM
      1  C8         0.0090   31.3020   56.2240 C.2     0  <0>0        0.2406
      2  O3        -0.6010   31.8050   55.3050 O.2     0  <0>0       -0.2733
      3  N2        -0.2680   30.0390   56.6050 N.am    0  <0>0       -0.3008
      4  H16        0.3370   29.5560   57.3880 H       0  <0>0        0.1497
      5  C4         1.0770   32.0890   56.9390 C.3     0  <0>0        0.1510
      6  N1         1.6500   33.0780   56.0240 N.am    0  <0>0       -0.2640
      7  C3         2.9880   33.2080   55.9240 C.2     0  <0>0        0.4020
      8  O2         3.7190   32.5020   56.5920 O.2     0  <0>0       -0.2264
      9  H8         0.9890   33.7160   55.4190 H       0  <0>0        0.1532
     10  O1         3.5150   34.1170   55.0820 O.3     0  <0>0       -0.4347
     11  C2         4.2980   35.1870   55.6750 C.3     0  <0>0        0.2102
     12  C1         3.3660   36.1620   56.3970 C.3     0  <0>0        0.0513
     13  C5         0.4620   32.8040   58.1450 C.3     0  <0>0        0.0270
     14  C6         1.3980   32.6710   59.3480 C.3     0  <0>0        0.0022
     15  C7         0.2650   34.2840   57.8120 C.3     0  <0>0        0.0022
     16  C9        -1.3740   29.3110   55.9790 C.3     0  <0>0        0.0946
     17  C10       -2.2570   28.6930   57.0640 C.3     0  <0>0        0.0262
     18  C11       -0.8220   28.2190   55.1000 C.ar    0  <0>0        0.0017
     19  C16       -1.0680   28.2360   53.7390 C.ar    0  <0>0        0.0321
     20  C15       -0.5610   27.2330   52.9320 C.ar    0  <0>0        0.0064
     21 Br         -2.0990   29.6290   52.9820 Br      0  <0>0       -0.0493
     22  C14        0.1930   26.2160   53.4860 C.ar    0  <0>0        0.0005
     23  C13        0.4400   26.2000   54.8450 C.ar    0  <0>0       -0.0002
     24  C12       -0.0630   27.2040   55.6520 C.ar    0  <0>0       -0.0022
@<TRIPOS>BOND
     1    20    22   ar
     2    20    19   ar
     3    21    19    1
     4    22    23   ar
     5    19    18   ar
     6    23    24   ar
     7    10    11    1
     8    10     7    1
     9    18    24   ar
    10    18    16    1
    11     2     1    2
    12     9     6    1
    13    11    12    1
    14     7     6   am
    15     7     8    2
    16    16     3    1
    17    16    17    1
    18     6     5    1
    19     1     3   am
    20     1     5    1
    21     3     4    1
    22     5    13    1
    23    15    13    1
    24    13    14    1
