@<TRIPOS>MOLECULE
ZINC54106197_replica-1.pdb
 20 21 0 0 0
SMALL
GASTEIGER

@<TRIPOS>ATOM
      1  C8         9.7800   36.5530   60.3650 C.ar    0  <0>0        0.0458
      2  C9        10.0730   35.3320   59.7720 C.ar    0  <0>0        0.0156
      3  C10       10.9260   34.4460   60.3990 C.ar    0  <0>0        0.0166
      4  C11       11.4920   34.7750   61.6230 C.ar    0  <0>0        0.0587
      5  C12       11.1990   35.9970   62.2170 C.ar    0  <0>0        0.0722
      6  C13       10.3500   36.8860   61.5860 C.ar    0  <0>0        0.0269
      7 Cl         11.9060   36.4100   63.7480 Cl      0  <0>0       -0.0809
      8  N1         8.9150   37.4510   59.7280 N.pl3   0  <0>0       -0.3281
      9  H10        9.1720   38.3810   59.6270 H       0  <0>0        0.1471
     10  C3         7.6230   36.9870   59.2160 C.3     0  <0>0        0.1273
     11  C2         6.4940   37.6130   60.0370 C.3     0  <0>0        0.0273
     12  C1         5.2010   36.8270   59.8090 C.3     0  <0>0        0.0022
     13  C4         7.4800   37.3930   57.7720 C.ar    0  <0>0        0.1406
     14  O1         7.0750   36.5970   56.7690 O.2     0  <0>0       -0.4530
     15  C7         7.0640   37.2940   55.6220 C.ar    0  <0>0        0.1792
     16  C6         7.4720   38.5490   55.8810 C.ar    0  <0>0        0.0435
     17  C5         7.7420   38.6130   57.2690 C.ar    0  <0>0        0.0379
     18  N2        12.3570   33.8770   62.2600 N.pl3   0  <0>0       -0.3034
     19  C14       11.8120   32.7600   63.0370 C.3     0  <0>0        0.1123
     20  C15       13.8080   34.0540   62.1500 C.3     0  <0>0        0.1123
@<TRIPOS>BOND
     1    15    16   ar
     2    15    14   ar
     3    16    17   ar
     4    14    13   ar
     5    17    13   ar
     6    13    10    1
     7    10     8    1
     8    10    11    1
     9     9     8    1
    10     8     1    1
    11     2     1   ar
    12     2     3   ar
    13    12    11    1
    14     1     6   ar
    15     3     4   ar
    16     6     5   ar
    17     4     5   ar
    18     4    18    1
    19    20    18    1
    20     5     7    1
    21    18    19    1
