@<TRIPOS>MOLECULE
ZINC62038528_replica-1.pdb
 34 38 0 0 0
SMALL
GASTEIGER

@<TRIPOS>ATOM
      1  C10        0.0520   30.1710   59.3600 C.2     0  <0>0        0.0914
      2  C11       -0.1330   30.5460   60.7180 C.3     0  <0>0        0.1144
      3  C12        0.2770   31.7640   61.4100 C.2     0  <0>0       -0.0038
      4  C13       -0.0160   31.8950   62.7260 C.2     0  <0>0        0.0331
      5  S2        -0.8660   30.3770   63.1150 S.3     0  <0>0       -0.0718
      6  C14       -0.8110   29.6070   61.5190 C.2     0  <0>0        0.0950
      7  N2        -1.2390   28.4610   61.0230 N.2     0  <0>0       -0.2414
      8  C15       -1.0380   28.1670   59.7530 C.3     0  <0>0        0.2511
      9  N3        -0.4150   29.0030   58.9430 N.2     0  <0>0       -0.2417
     10  S1         0.8840   31.2480   58.2400 S.3     0  <0>0       -0.0891
     11  C9        -0.3300   31.5350   56.9240 C.3     0  <0>0        0.1483
     12  C8        -0.1490   30.5020   55.8400 C.2     0  <0>0        0.2376
     13  N1        -0.8720   29.3650   55.8670 N.am    0  <0>0       -0.2808
     14  H7        -1.5630   29.2450   56.5370 H       0  <0>0        0.1550
     15  O1         0.6470   30.6940   54.9460 O.2     0  <0>0       -0.2738
     16  C6        -0.6280   28.3580   54.9240 C.ar    0  <0>0        0.0842
     17  C5         0.1560   27.2580   55.2650 C.ar    0  <0>0        0.1470
     18  C4         0.3960   26.2650   54.3290 C.ar    0  <0>0        0.0376
     19  C3        -0.1430   26.3660   53.0600 C.ar    0  <0>0       -0.0011
     20  C2        -0.9210   27.4580   52.7200 C.ar    0  <0>0       -0.0204
     21  C1        -1.5050   27.5620   51.3360 C.3     0  <0>0        0.0311
     22  C7        -1.1600   28.4550   53.6460 C.ar    0  <0>0        0.0135
     23  O2         0.6840   27.1590   56.5140 O.3     0  <0>0       -0.5043
     24  H23        0.0270   27.0340   57.2120 H       0  <0>0        0.2922
     25  C16        1.0000   32.8370   60.6880 C.ar    0  <0>0       -0.0031
     26  C21        2.3910   32.8420   60.6490 C.ar    0  <0>0       -0.0049
     27  C20        3.0710   33.8410   59.9700 C.ar    0  <0>0       -0.0261
     28  C19        2.3660   34.8400   59.3340 C.ar    0  <0>0       -0.0261
     29  C22        4.5770   33.7900   59.9770 C.3     0  <0>0        0.0260
     30  C18        0.9760   34.8410   59.3760 C.ar    0  <0>0       -0.0046
     31  C25        3.0440   35.9510   58.5740 C.3     0  <0>0        0.0260
     32  C17        0.2910   33.8520   60.0460 C.ar    0  <0>0       -0.0006
     33  C24        4.5110   36.0620   58.9800 C.3     0  <0>0        0.0050
     34  C23        5.1500   34.6730   58.8700 C.3     0  <0>0        0.0050
@<TRIPOS>BOND
     1    21    20    1
     2    20    19   ar
     3    20    22   ar
     4    19    18   ar
     5    22    16   ar
     6    18    17   ar
     7    16    17   ar
     8    16    13    1
     9    15    12    2
    10    17    23    1
    11    12    13   am
    12    12    11    1
    13    13    14    1
    14    23    24    1
    15    11    10    1
    16    10     1    1
    17    31    33    1
    18    31    28    1
    19    34    33    1
    20    34    29    1
    21     9     1    2
    22     9     8    1
    23    28    30   ar
    24    28    27   ar
    25     1     2    1
    26    30    32   ar
    27     8     7    1
    28    27    29    1
    29    27    26   ar
    30    32    25   ar
    31    26    25   ar
    32    25     3    1
    33     2     3    1
    34     2     6    1
    35     7     6    2
    36     3     4    2
    37     6     5    1
    38     4     5    1
