@<TRIPOS>MOLECULE
ZINC38899177_replica-1.pdb
 30 32 0 0 0
SMALL
GASTEIGER

@<TRIPOS>ATOM
      1  C1         0.6380   30.6470   59.6510 C.3     0  <0>0        0.0621
      2  C2         0.4320   31.5230   58.4410 C.2     0  <0>0        0.0981
      3  C3         0.4890   32.8800   58.5650 C.3     0  <0>0        0.1338
      4  C4         0.2940   33.6770   57.4220 C.2     0  <0>0        0.2347
      5  O1         0.3390   34.8940   57.4970 O.2     0  <0>0       -0.2743
      6  N1         0.0570   33.0680   56.2400 N.am    0  <0>0       -0.2541
      7  H1        -0.0800   33.5980   55.4390 H       0  <0>0        0.1577
      8  C5         0.0110   31.7080   56.1780 C.2     0  <0>0        0.2125
      9  N2         0.2010   30.9690   57.2530 N.2     0  <0>0       -0.3889
     10  C14        0.7560   33.5180   59.9040 C.3     0  <0>0        0.1009
     11  C15        2.2310   33.7950   60.0440 C.2     0  <0>0        0.2236
     12  O2         2.9130   33.0960   60.7620 O.2     0  <0>0       -0.2751
     13  N3         2.7900   34.8200   59.3710 N.am    0  <0>0       -0.3004
     14  H16        2.2430   35.3790   58.7970 H       0  <0>0        0.1497
     15  C16        4.2230   35.0890   59.5060 C.3     0  <0>0        0.1163
     16  C17        4.7550   35.6440   58.2100 C.ar    0  <0>0       -0.0026
     17  C22        3.9530   35.6580   57.0840 C.ar    0  <0>0       -0.0026
     18  C21        4.4380   36.1700   55.8950 C.ar    0  <0>0       -0.0003
     19  C20        5.7300   36.6610   55.8300 C.ar    0  <0>0       -0.0000
     20  C19        6.5330   36.6420   56.9550 C.ar    0  <0>0       -0.0003
     21  C18        6.0460   36.1330   58.1440 C.ar    0  <0>0       -0.0026
     22  S1        -0.2990   30.9230   54.6310 S.3     0  <0>0       -0.0634
     23  C6        -1.0270   29.3260   55.0870 C.3     0  <0>0        0.0777
     24  C7        -2.4920   29.5270   55.4820 C.3     0  <0>0        0.0169
     25  C8        -0.9470   28.3830   53.9140 C.ar    0  <0>0       -0.0120
     26  C13       -1.5560   28.7140   52.7190 C.ar    0  <0>0       -0.0034
     27  C12       -1.4780   27.8510   51.6420 C.ar    0  <0>0       -0.0003
     28  C11       -0.7990   26.6530   51.7630 C.ar    0  <0>0       -0.0000
     29  C10       -0.1950   26.3200   52.9610 C.ar    0  <0>0       -0.0003
     30  C9        -0.2680   27.1850   54.0370 C.ar    0  <0>0       -0.0034
@<TRIPOS>BOND
     1    27    28   ar
     2    27    26   ar
     3    28    29   ar
     4    26    25   ar
     5    29    30   ar
     6    25    30   ar
     7    25    23    1
     8    22    23    1
     9    22     8    1
    10    23    24    1
    11     7     6    1
    12    19    18   ar
    13    19    20   ar
    14    18    17   ar
    15     8     6    1
    16     8     9    2
    17     6     4   am
    18    20    21   ar
    19    17    16   ar
    20     9     2    2
    21     4     5    2
    22     4     3    1
    23    21    16   ar
    24    16    15    1
    25     2     3    1
    26     2     1    1
    27     3    10    1
    28    14    13    1
    29    13    15    1
    30    13    11   am
    31    10    11    1
    32    11    12    2
