@<TRIPOS>MOLECULE
ZINC27977620_replica-1.pdb
 25 27 0 0 0
SMALL
GASTEIGER

@<TRIPOS>ATOM
      1  N1         0.4650   30.4760   57.1520 N.am    0  <0>0       -0.2806
      2  C8        -0.6360   30.6660   56.3970 C.2     0  <0>0        0.2495
      3  O1        -1.4510   31.5110   56.7120 O.2     0  <0>0       -0.2698
      4  H7         1.2380   29.7640   56.8280 H       0  <0>0        0.1552
      5  C9        -0.8520   29.8460   55.1890 C.ar    0  <0>0        0.0538
      6  C14       -0.3230   28.5600   55.1170 C.ar    0  <0>0        0.0057
      7  C13       -0.5350   27.7970   53.9720 C.ar    0  <0>0        0.0131
      8  C12       -1.2780   28.3280   52.8990 C.ar    0  <0>0        0.0594
      9  C15       -0.1390   26.4470   53.5620 C.ar    0  <0>0       -0.0088
     10  C11       -1.7970   29.6170   52.9910 C.ar    0  <0>0        0.0173
     11  N2        -1.3210   27.3630   51.9210 N.ar    0  <0>0       -0.3289
     12  C10       -1.5940   30.3600   54.1170 C.ar    0  <0>0        0.0060
     13  C16       -0.6380   26.2500   52.3310 C.ar    0  <0>0        0.0335
     14  C17       -1.9980   27.5060   50.6300 C.3     0  <0>0        0.1301
     15  C18       -0.4720   24.9900   51.5220 C.3     0  <0>0        0.0497
     16  C19        0.6740   25.4660   54.3670 C.3     0  <0>0        0.0322
     17  C7         0.6250   31.1860   58.3480 C.ar    0  <0>0        0.0467
     18  C2         0.2880   30.5940   59.5580 C.ar    0  <0>0       -0.0054
     19  C1        -0.2500   29.1870   59.5830 C.3     0  <0>0        0.0324
     20  C3         0.4460   31.2940   60.7380 C.ar    0  <0>0        0.0339
     21  C4         0.9410   32.5900   60.7140 C.ar    0  <0>0        0.1385
     22  C5         1.2830   33.1810   59.5060 C.ar    0  <0>0        0.0382
     23  C6         1.1200   32.4830   58.3250 C.ar    0  <0>0        0.0175
     24  O2         1.0970   33.2790   61.8760 O.3     0  <0>0       -0.4714
     25  C20       -0.0180   33.3060   62.7680 C.3     0  <0>0        0.2525
@<TRIPOS>BOND
     1    14    11    1
     2    15    13    1
     3    11    13   ar
     4    11     8   ar
     5    13     9   ar
     6     8    10   ar
     7     8     7   ar
     8    10    12   ar
     9     9     7   ar
    10     9    16    1
    11     7     6   ar
    12    12     5   ar
    13     6     5   ar
    14     5     2    1
    15     2     3    2
    16     2     1   am
    17     4     1    1
    18     1    17    1
    19    23    17   ar
    20    23    22   ar
    21    17    18   ar
    22    22    21   ar
    23    18    19    1
    24    18    20   ar
    25    21    20   ar
    26    21    24    1
    27    24    25    1
