@<TRIPOS>MOLECULE
ZINC66381927_replica-1.pdb
 26 27 0 0 0
SMALL
GASTEIGER

@<TRIPOS>ATOM
      1  N1         5.1880   35.0800   57.0500 N.am    0  <0>0       -0.2904
      2  C7         6.4380   35.5750   56.9450 C.2     0  <0>0        0.3042
      3  O1         6.6460   36.5600   56.2650 O.2     0  <0>0       -0.2526
      4  N2         7.4560   34.9770   57.5950 N.am    0  <0>0       -0.2575
      5  H15        5.0220   34.2940   57.5920 H       0  <0>0        0.1509
      6  C8         8.8140   35.5140   57.4810 C.3     0  <0>0        0.1248
      7  C9         9.3590   35.7940   58.8580 C.ar    0  <0>0        0.0317
      8  C14        9.0490   36.9850   59.4980 C.ar    0  <0>0        0.1363
      9  C13        9.5460   37.2370   60.7680 C.ar    0  <0>0        0.0366
     10  C12       10.3570   36.3080   61.3890 C.ar    0  <0>0        0.0031
     11  C11       10.6690   35.1240   60.7480 C.ar    0  <0>0       -0.0001
     12  C10       10.1710   34.8670   59.4840 C.ar    0  <0>0        0.0004
     13  O2         8.2550   37.9010   58.8830 O.3     0  <0>0       -0.4717
     14  C15        7.0110   38.2110   59.5160 C.3     0  <0>0        0.2525
     15  C16        7.2050   33.7880   58.4140 C.3     0  <0>0        0.1247
     16  C17        7.7270   32.5480   57.6870 C.3     0  <0>0        0.1351
     17  O3         8.4460   31.7140   58.6040 O.3     0  <0>0       -0.3545
     18  C20        7.7950   30.4370   58.7180 C.3     0  <0>0        0.1422
     19  C19        7.0060   30.2650   57.3950 C.3     0  <0>0        0.0346
     20  C18        6.5420   31.7250   57.1380 C.3     0  <0>0        0.0339
     21  C3         4.0820   35.7310   56.3430 C.3     0  <0>0        0.0730
     22  C2         2.9770   36.0830   57.3410 C.3     0  <0>0        0.0196
     23  C1         3.4480   35.7550   58.7590 C.3     0  <0>0        0.0017
     24  C4         3.5260   34.7790   55.2820 C.3     0  <0>0        0.0180
     25  C5         4.5180   34.6710   54.1220 C.3     0  <0>0        0.0017
     26  C6         3.3090   33.3960   55.8990 C.3     0  <0>0        0.0017
@<TRIPOS>BOND
     1    25    24    1
     2    24    26    1
     3    24    21    1
     4     3     2    2
     5    21     1    1
     6    21    22    1
     7     2     1   am
     8     2     4   am
     9     1     5    1
    10    20    19    1
    11    20    16    1
    12    22    23    1
    13    19    18    1
    14     6     4    1
    15     6     7    1
    16     4    15    1
    17    16    15    1
    18    16    17    1
    19    17    18    1
    20     7    12   ar
    21     7     8   ar
    22    13     8    1
    23    13    14    1
    24    12    11   ar
    25     8     9   ar
    26    11    10   ar
    27     9    10   ar
