@<TRIPOS>MOLECULE
ZINC04671045_replica-1.pdb
 27 30 0 0 0
SMALL
GASTEIGER

@<TRIPOS>ATOM
      1  C1         6.1100   37.0260   60.2630 C.3     0  <0>0        0.0537
      2  C2         5.2710   36.3450   59.2120 C.ar    0  <0>0        0.0788
      3  C3         5.6510   36.1270   57.8710 C.ar    0  <0>0        0.0382
      4  C4         4.6320   35.4900   57.2530 C.ar    0  <0>0        0.1295
      5  N1         3.6440   35.3130   58.1840 N.ar    0  <0>0       -0.2360
      6  N2         4.0790   35.8530   59.3940 N.ar    0  <0>0       -0.1726
      7  N3         4.4740   35.0510   55.9590 N.am    0  <0>0       -0.2690
      8  C13        5.2240   35.0330   54.9000 C.2     0  <0>0        0.2382
      9  O1         4.7480   34.4520   53.9480 O.2     0  <0>0       -0.2738
     10  C14        6.5660   35.6090   54.6670 C.3     0  <0>0        0.1433
     11  S1         7.6480   35.4630   56.0960 S.3     0  <0>0       -0.1223
     12  C15        6.9780   36.5690   57.3400 C.3     0  <0>0        0.0963
     13  H14        3.5980   34.6660   55.8020 H       0  <0>0        0.1563
     14  C5         2.3530   34.6620   57.9510 C.3     0  <0>0        0.1287
     15  C6         1.3480   35.6910   57.4290 C.3     0  <0>0        0.0313
     16  C7         1.8450   34.0750   59.2440 C.ar    0  <0>0       -0.0001
     17  C12        2.5060   33.0090   59.8250 C.ar    0  <0>0       -0.0024
     18  C11        2.0430   32.4740   61.0130 C.ar    0  <0>0       -0.0003
     19  C10        0.9150   32.9990   61.6150 C.ar    0  <0>0       -0.0000
     20  C9         0.2520   34.0620   61.0310 C.ar    0  <0>0       -0.0003
     21  C8         0.7170   34.6000   59.8440 C.ar    0  <0>0       -0.0024
     22  C16        7.9540   36.6530   58.4870 C.ar    0  <0>0       -0.0083
     23  C21        8.3470   37.8870   58.9690 C.ar    0  <0>0       -0.0031
     24  C20        9.2380   37.9650   60.0240 C.ar    0  <0>0       -0.0003
     25  C19        9.7410   36.8090   60.5900 C.ar    0  <0>0       -0.0000
     26  C18        9.3510   35.5740   60.1050 C.ar    0  <0>0       -0.0003
     27  C17        8.4570   35.4970   59.0530 C.ar    0  <0>0       -0.0031
@<TRIPOS>BOND
     1     9     8    2
     2    10     8    1
     3    10    11    1
     4     8     7   am
     5    13     7    1
     6     7     4    1
     7    11    12    1
     8     4     3   ar
     9     4     5   ar
    10    12     3    1
    11    12    22    1
    12    15    14    1
    13     3     2   ar
    14    14     5    1
    15    14    16    1
    16     5     6   ar
    17    22    23   ar
    18    22    27   ar
    19    23    24   ar
    20    27    26   ar
    21     2     6   ar
    22     2     1    1
    23    16    17   ar
    24    16    21   ar
    25    17    18   ar
    26    21    20   ar
    27    24    25   ar
    28    26    25   ar
    29    18    19   ar
    30    20    19   ar
