@<TRIPOS>MOLECULE
ZINC21467671_replica-1.pdb
 29 31 0 0 0
SMALL
GASTEIGER

@<TRIPOS>ATOM
      1  C12        1.8150   31.9510   57.9150 C.ar    0  <0>0        0.2042
      2  N1         1.0590   31.0480   58.4720 N.ar    0  <0>0       -0.1274
      3  N2         0.3620   30.4420   57.5780 N.ar    0  <0>0       -0.1207
      4  C13        0.6460   30.9240   56.3900 C.ar    0  <0>0        0.2094
      5  N3         1.5790   31.9040   56.5680 N.ar    0  <0>0       -0.2242
      6  C11        2.7730   32.8750   58.6220 C.3     0  <0>0        0.2719
      7  O1         2.7180   34.1690   58.0190 O.3     0  <0>0       -0.4672
      8  C8         3.8570   34.9090   58.0430 C.ar    0  <0>0        0.1392
      9  C7         4.4770   35.1930   59.2520 C.ar    0  <0>0        0.0366
     10  C6         5.6350   35.9460   59.2730 C.ar    0  <0>0       -0.0012
     11  C5         6.1770   36.4160   58.0920 C.ar    0  <0>0       -0.0226
     12  C10        5.5620   36.1350   56.8860 C.ar    0  <0>0       -0.0012
     13  C9         4.4070   35.3770   56.8590 C.ar    0  <0>0        0.0366
     14  C2         7.4410   37.2360   58.1180 C.3     0  <0>0        0.0189
     15  C1         7.3030   38.3550   59.1520 C.3     0  <0>0        0.0044
     16  C3         8.6230   36.3390   58.4920 C.3     0  <0>0        0.0044
     17  C4         7.6820   37.8470   56.7360 C.3     0  <0>0        0.0044
     18  N4         2.1570   32.6780   55.6020 N.pl3   0  <0>0       -0.2947
     19  H16        1.5560   33.4240   55.0610 H       0  <0>0        0.1627
     20  H17        3.2250   32.5550   55.3650 H       0  <0>0        0.1627
     21  S1        -0.0530   30.4090   54.8560 S.3     0  <0>0       -0.0693
     22  C14       -0.0340   28.6130   55.0890 C.3     0  <0>0        0.0936
     23  C15       -0.4570   27.9370   53.8120 C.ar    0  <0>0        0.0166
     24  C20       -0.0500   26.6410   53.5470 C.ar    0  <0>0        0.1370
     25  C19       -0.4390   26.0200   52.3710 C.ar    0  <0>0        0.0293
     26  F1         0.7320   25.9840   54.4310 F       0  <0>0       -0.2045
     27  C18       -1.2340   26.6950   51.4650 C.ar    0  <0>0        0.0023
     28  C17       -1.6400   27.9900   51.7310 C.ar    0  <0>0       -0.0002
     29  C16       -1.2530   28.6100   52.9030 C.ar    0  <0>0       -0.0012
@<TRIPOS>BOND
     1    27    28   ar
     2    27    25   ar
     3    28    29   ar
     4    25    24   ar
     5    29    23   ar
     6    24    23   ar
     7    24    26    1
     8    23    22    1
     9    21    22    1
    10    21     4    1
    11    19    18    1
    12    20    18    1
    13    18     5    1
    14     4     5   ar
    15     4     3   ar
    16     5     1   ar
    17    17    14    1
    18    13    12   ar
    19    13     8   ar
    20    12    11   ar
    21     3     2   ar
    22     1     2   ar
    23     1     6    1
    24     7     8    1
    25     7     6    1
    26     8     9   ar
    27    11    14    1
    28    11    10   ar
    29    14    16    1
    30    14    15    1
    31     9    10   ar
