@<TRIPOS>MOLECULE
ZINC11115628_replica-1.pdb
 27 29 0 0 0
SMALL
GASTEIGER

@<TRIPOS>ATOM
      1  C10        0.8650   31.0770   55.9020 C.2     0  <0>0        0.2429
      2  O1         0.8730   30.4360   56.9310 O.2     0  <0>0       -0.2732
      3  N2         1.7540   32.0740   55.7220 N.am    0  <0>0       -0.2968
      4  H14        1.7480   32.5860   54.8990 H       0  <0>0        0.1500
      5  C11        2.7290   32.3840   56.7710 C.3     0  <0>0        0.1230
      6  C12        2.0870   33.2700   57.8070 C.ar    0  <0>0        0.0002
      7  C17        1.2530   34.3000   57.4150 C.ar    0  <0>0       -0.0023
      8  C16        0.6650   35.1130   58.3640 C.ar    0  <0>0       -0.0003
      9  C15        0.9100   34.8960   59.7080 C.ar    0  <0>0       -0.0000
     10  C14        1.7450   33.8660   60.1010 C.ar    0  <0>0       -0.0003
     11  C13        2.3290   33.0500   59.1500 C.ar    0  <0>0       -0.0023
     12  C18        3.9100   33.0940   56.1640 C.ar    0  <0>0        0.0292
     13  S1         5.6300   33.0210   56.6360 S.2     0  <0>0       -0.0888
     14  C21        6.2770   34.1420   55.4060 C.ar    0  <0>0        0.0352
     15  C20        5.1560   34.4950   54.7310 C.ar    0  <0>0        0.0072
     16  C19        3.9440   33.9540   55.1160 C.ar    0  <0>0        0.0046
     17  C9        -0.1370   30.7570   54.8220 C.3     0  <0>0        0.1736
     18  N1        -0.7880   29.4790   55.1220 N.pl3   0  <0>0       -0.3255
     19  H11       -1.2690   29.3650   55.9570 H       0  <0>0        0.1472
     20  C5        -0.7160   28.4270   54.2070 C.ar    0  <0>0        0.0409
     21  C4        -1.3090   28.5500   52.9570 C.ar    0  <0>0        0.0137
     22  C3        -1.2350   27.5070   52.0540 C.ar    0  <0>0       -0.0030
     23  C2        -0.5710   26.3430   52.3930 C.ar    0  <0>0       -0.0221
     24  C1        -0.4920   25.2080   51.4040 C.3     0  <0>0        0.0310
     25  C7         0.0200   26.2170   53.6360 C.ar    0  <0>0       -0.0073
     26  C6        -0.0460   27.2570   54.5430 C.ar    0  <0>0       -0.0090
     27  C8         0.6050   27.1220   55.8950 C.3     0  <0>0        0.0323
@<TRIPOS>BOND
     1    24    23    1
     2    22    23   ar
     3    22    21   ar
     4    23    25   ar
     5    21    20   ar
     6    25    26   ar
     7    20    26   ar
     8    20    18    1
     9    26    27    1
    10    15    16   ar
    11    15    14   ar
    12    17    18    1
    13    17     1    1
    14     4     3    1
    15    16    12   ar
    16    18    19    1
    17    14    13   ar
    18     3     1   am
    19     3     5    1
    20     1     2    2
    21    12    13   ar
    22    12     5    1
    23     5     6    1
    24     7     6   ar
    25     7     8   ar
    26     6    11   ar
    27     8     9   ar
    28    11    10   ar
    29     9    10   ar
