@<TRIPOS>MOLECULE
ZINC61630206_replica-1.pdb
 21 21 0 0 0
SMALL
GASTEIGER

@<TRIPOS>ATOM
      1  C5         8.8850   34.6910   58.3390 C.ar    0  <0>0        0.0624
      2  C6         9.6530   34.2110   59.3940 C.ar    0  <0>0        0.0179
      3  C7        10.1570   35.0880   60.3340 C.ar    0  <0>0        0.0310
      4  C8         9.8970   36.4440   60.2270 C.ar    0  <0>0        0.1415
      5  C9         9.1340   36.9240   59.1770 C.ar    0  <0>0        0.0495
      6  C10        8.6320   36.0520   58.2320 C.ar    0  <0>0        0.1295
      7  F4        10.3910   37.3000   61.1490 F       0  <0>0       -0.2041
      8  N1         8.3750   33.8050   57.3860 N.pl3   0  <0>0       -0.3310
      9  H10        8.6720   33.8610   56.4640 H       0  <0>0        0.1469
     10  C2         7.3920   32.7930   57.7780 C.3     0  <0>0        0.0991
     11  C1         8.0390   31.4070   57.7310 C.3     0  <0>0        0.0238
     12  C3         6.2050   32.8330   56.8130 C.3     0  <0>0        0.1616
     13  O1         6.6450   33.2940   55.5350 O.3     0  <0>0       -0.3494
     14  C4         5.6070   33.8540   54.7290 C.3     0  <0>0        0.1742
     15  S1         7.6650   36.6640   56.8910 S.O2    0  <0>0        0.0932
     16  O2         8.3030   36.1620   55.7250 O.2     0  <0>0       -0.1611
     17  O3         6.3310   36.2890   57.2060 O.2     0  <0>0       -0.1611
     18  C11        7.8430   38.4680   56.9730 C.3     0  <0>0        0.5262
     19  F1         7.1110   39.0550   55.9350 F       0  <0>0       -0.1500
     20  F2         7.3610   38.9290   58.2020 F       0  <0>0       -0.1500
     21  F3         9.1940   38.8080   56.8420 F       0  <0>0       -0.1500
@<TRIPOS>BOND
     1    14    13    1
     2    13    12    1
     3    16    15    2
     4    19    18    1
     5     9     8    1
     6    12    10    1
     7    21    18    1
     8    15    18    1
     9    15    17    2
    10    15     6    1
    11    18    20    1
    12     8    10    1
    13     8     1    1
    14    11    10    1
    15     6     1   ar
    16     6     5   ar
    17     1     2   ar
    18     5     4   ar
    19     2     3   ar
    20     4     3   ar
    21     4     7    1
