@<TRIPOS>MOLECULE
ZINC00387856_replica-1.pdb
 23 25 0 0 0
SMALL
GASTEIGER

@<TRIPOS>ATOM
      1  C6        -0.5600   28.8170   54.5810 C.3     0  <0>0        0.0376
      2  C5        -1.1160   30.2370   54.7060 C.3     0  <0>0        0.0721
      3  C4        -0.3070   31.0060   55.7180 C.ar    0  <0>0        0.1544
      4  C3        -0.7730   31.6220   56.8300 C.ar    0  <0>0        0.0536
      5  C2         0.3830   32.1830   57.4200 C.ar    0  <0>0        0.1007
      6  C1         0.4480   32.9870   58.6930 C.3     0  <0>0        0.0557
      7  N1         1.3790   31.8740   56.6410 N.ar    0  <0>0       -0.0817
      8  O1         1.0160   31.2200   55.6910 O.2     0  <0>0       -0.3581
      9  C7        -1.0910   27.9590   55.7320 C.3     0  <0>0        0.0739
     10  C8         0.0630   27.2710   56.4180 C.2     0  <0>0        0.1734
     11  O2         0.9240   27.9280   56.9620 O.2     0  <0>0       -0.2913
     12  C9         0.1420   25.8020   56.4260 C.ar    0  <0>0        0.0347
     13  C14        0.5940   25.1150   55.2950 C.ar    0  <0>0        0.0028
     14  C13        0.6650   23.7390   55.3110 C.ar    0  <0>0        0.0001
     15  C12        0.2910   23.0350   56.4430 C.ar    0  <0>0        0.0000
     16  C11       -0.1580   23.7080   57.5670 C.ar    0  <0>0        0.0001
     17  C10       -0.2350   25.0840   57.5660 C.ar    0  <0>0        0.0028
     18  C15       -0.9950   28.2200   53.2670 C.ar    0  <0>0       -0.0216
     19  C20       -1.8710   28.9100   52.4500 C.ar    0  <0>0       -0.0043
     20  C19       -2.2700   28.3620   51.2450 C.ar    0  <0>0       -0.0003
     21  C18       -1.7930   27.1250   50.8570 C.ar    0  <0>0       -0.0000
     22  C17       -0.9170   26.4340   51.6740 C.ar    0  <0>0       -0.0003
     23  C16       -0.5150   26.9840   52.8770 C.ar    0  <0>0       -0.0043
@<TRIPOS>BOND
     1    21    20   ar
     2    21    22   ar
     3    20    19   ar
     4    22    23   ar
     5    19    18   ar
     6    23    18   ar
     7    18     1    1
     8     1     2    1
     9     1     9    1
    10     2     3    1
    11    13    14   ar
    12    13    12   ar
    13    14    15   ar
    14     8     3   ar
    15     8     7   ar
    16     3     4   ar
    17     9    10    1
    18    10    12    1
    19    10    11    2
    20    12    17   ar
    21    15    16   ar
    22     7     5   ar
    23     4     5   ar
    24     5     6    1
    25    17    16   ar
