@<TRIPOS>MOLECULE
ZINC35031367_replica-1.pdb
 28 29 0 0 0
SMALL
GASTEIGER

@<TRIPOS>ATOM
      1  C10        4.4320   35.2340   57.8380 C.ar    0  <0>0        0.1387
      2  C11        5.4710   34.9830   56.9550 C.ar    0  <0>0        0.0366
      3  C12        6.6940   35.5990   57.1350 C.ar    0  <0>0       -0.0012
      4  C13        6.8820   36.4650   58.1970 C.ar    0  <0>0       -0.0226
      5  C14        5.8490   36.7160   59.0790 C.ar    0  <0>0       -0.0012
      6  C15        4.6220   36.1070   58.8990 C.ar    0  <0>0        0.0366
      7  O1         3.2270   34.6290   57.6630 O.3     0  <0>0       -0.4729
      8  C9         2.3320   35.2270   56.7210 C.3     0  <0>0        0.2321
      9  C8         1.0260   35.6010   57.4260 C.3     0  <0>0        0.1335
     10  C7         0.2250   34.3310   57.7210 C.3     0  <0>0       -0.0435
     11  N1         0.8950   33.5660   58.7800 N.4     0  <0>0        0.3900
     12  C2         0.5770   32.1400   58.6270 C.3     0  <0>0       -0.0580
     13  C1         0.9870   31.6750   57.2270 C.3     0  <0>0       -0.0229
     14  C3         1.3370   31.3290   59.6760 C.3     0  <0>0       -0.0209
     15  C4         0.9240   31.7980   61.0740 C.3     0  <0>0       -0.0042
     16  C5         1.1910   33.3010   61.1970 C.3     0  <0>0       -0.0229
     17  C6         0.4350   34.0400   60.0900 C.3     0  <0>0       -0.0771
     18  H40        1.8930   33.6960   58.7060 H       0  <0>0       -0.0795
     19  O2         0.2600   36.4630   56.5820 O.3     0  <0>0       -0.3828
     20  H39        0.2560   36.2010   55.6510 H       0  <0>0        0.2104
     21  C16        8.2190   37.1350   58.3920 C.3     0  <0>0        0.0189
     22  C17        8.5520   37.9770   57.1600 C.3     0  <0>0        0.0044
     23  C18        8.1610   38.0370   59.6260 C.3     0  <0>0        0.0044
     24  C19        9.2990   36.0690   58.5890 C.3     0  <0>0        0.0040
     25  C20        9.3700   35.6830   60.0670 C.3     0  <0>0        0.0003
     26  C21        8.2130   34.7390   60.4030 C.3     0  <0>0        0.0000
     27  C22       10.7000   34.9790   60.3470 C.3     0  <0>0        0.0000
     28  C23        9.2680   36.9420   60.9290 C.3     0  <0>0        0.0000
@<TRIPOS>BOND
     1    20    19    1
     2    19     9    1
     3     8     9    1
     4     8     7    1
     5     2     3   ar
     6     2     1   ar
     7     3     4   ar
     8    22    21    1
     9    13    12    1
    10     9    10    1
    11     7     1    1
    12    10    11    1
    13     1     6   ar
    14     4    21    1
    15     4     5   ar
    16    21    24    1
    17    21    23    1
    18    24    25    1
    19    12    11    1
    20    12    14    1
    21    18    11    1
    22    11    17    1
    23     6     5   ar
    24    14    15    1
    25    25    27    1
    26    25    26    1
    27    25    28    1
    28    17    16    1
    29    15    16    1
