@<TRIPOS>MOLECULE
ZINC58406635_replica-1.pdb
 24 27 0 0 0
SMALL
GASTEIGER

@<TRIPOS>ATOM
      1  N3         7.5610   34.2090   59.0570 N.am    0  <0>0       -0.2790
      2  C9         8.1040   34.8870   60.0860 C.2     0  <0>0        0.2555
      3  O1         7.6140   35.9400   60.4480 O.2     0  <0>0       -0.2693
      4  H8         7.9080   33.3370   58.8130 H       0  <0>0        0.1552
      5  C5         6.4920   34.7650   58.3370 C.2     0  <0>0        0.0658
      6  C4         5.2170   34.4670   58.6840 C.2     0  <0>0        0.0824
      7  N1         4.1670   35.0010   57.9910 N.pl3   0  <0>0       -0.2538
      8  C3         2.8110   34.8740   58.1220 C.3     0  <0>0        0.1522
      9  C8         4.3900   35.8450   56.9340 C.2     0  <0>0        0.1867
     10  C2         2.2430   35.6310   57.1590 C.2     0  <0>0        0.1090
     11  C1         0.7630   35.7920   56.9250 C.3     0  <0>0        0.0634
     12  N2         3.2110   36.2090   56.4440 N.2     0  <0>0       -0.3935
     13  C7         5.7100   36.1650   56.5600 C.2     0  <0>0        0.0493
     14  C6         6.7490   35.6300   57.2550 C.2     0  <0>0        0.0200
     15  C10        9.2880   34.3570   60.7700 C.ar    0  <0>0        0.0825
     16  S1         9.6550   32.6780   61.2420 S.2     0  <0>0       -0.0871
     17  C13       11.1530   32.9320   61.9440 C.ar    0  <0>0        0.0034
     18  C12       11.3900   34.2660   61.8460 C.ar    0  <0>0       -0.0195
     19  C14       12.0360   31.8820   62.5530 C.3     0  <0>0        0.0326
     20  C11       10.4060   35.0270   61.2240 C.ar    0  <0>0        0.0069
     21  C18       12.6610   34.9160   62.3850 C.3     0  <0>0        0.0266
     22  C17       13.8820   34.0970   61.9810 C.3     0  <0>0        0.0047
     23  C16       14.1840   33.0330   63.0340 C.3     0  <0>0        0.0007
     24  C15       12.8920   32.5140   63.6560 C.3     0  <0>0        0.0052
@<TRIPOS>BOND
     1    12     9    2
     2    12    10    2
     3    13     9    1
     4    13    14    2
     5    11    10    1
     6     9     7    1
     7    10     8    1
     8    14     5    1
     9     7     8    1
    10     7     6    1
    11     5     6    2
    12     5     1    1
    13     4     1    1
    14     1     2   am
    15     2     3    2
    16     2    15    1
    17    15    20   ar
    18    15    16   ar
    19    20    18   ar
    20    16    17   ar
    21    18    17   ar
    22    18    21    1
    23    17    19    1
    24    22    21    1
    25    22    23    1
    26    19    24    1
    27    23    24    1
