@<TRIPOS>MOLECULE
ZINC43191501_replica-1.pdb
 26 29 0 0 0
SMALL
GASTEIGER

@<TRIPOS>ATOM
      1  C3        10.8500   35.4110   61.5350 C.3     0  <0>0        0.0576
      2  C4        10.4890   36.6840   61.7240 C.3     0  <0>0        0.0073
      3  C5         9.1320   36.9400   61.0870 C.3     0  <0>0        0.0004
      4  C6         8.5200   35.5250   61.0330 C.3     0  <0>0        0.0004
      5  C7         9.7760   34.6830   60.7270 C.3     0  <0>0        0.0065
      6  C8        10.1870   34.8120   59.2590 C.3     0  <0>0        0.0004
      7  C9         9.0130   34.5210   58.3300 C.3     0  <0>0        0.0000
      8  C10        7.9230   35.5700   58.5840 C.3     0  <0>0        0.0000
      9  C11        7.4300   35.3850   60.0070 C.3     0  <0>0        0.0000
     10  C12        6.3100   36.3950   60.2630 C.3     0  <0>0        0.0000
     11  C13        5.1710   36.1560   59.2700 C.3     0  <0>0        0.0001
     12  C14        5.6940   36.3270   57.8430 C.3     0  <0>0        0.0036
     13  C15        6.7820   35.3600   57.5860 C.3     0  <0>0        0.0002
     14  C16        6.2370   33.9380   57.7270 C.3     0  <0>0        0.0037
     15  C17        5.0980   33.7270   56.7270 C.3     0  <0>0        0.0436
     16  C18        3.9790   34.7330   57.0100 C.3     0  <0>0        0.1688
     17  C19        4.5560   36.0920   56.8500 C.3     0  <0>0        0.0436
     18  C22        7.3070   35.5650   56.1630 C.3     0  <0>0        0.0000
     19  C23        9.6120   33.2260   61.1620 C.3     0  <0>0        0.0004
     20  O2         2.9150   34.5360   56.0770 O.3     0  <0>0       -0.4523
     21  C20        1.6780   34.4070   56.5810 C.2     0  <0>0        0.3174
     22  O3         1.1850   33.3100   56.7010 O.2     0  <0>0       -0.2501
     23  C21        0.9040   35.6310   57.0010 C.3     0  <0>0        0.1212
     24  C2        12.0890   34.8070   62.0230 C.2     0  <0>0        0.1507
     25  C1        12.4270   34.8590   63.4900 C.3     0  <0>0        0.0722
     26  O1        12.8460   34.2630   61.2460 O.2     0  <0>0       -0.2961
@<TRIPOS>BOND
     1    20    21    1
     2    20    16    1
     3    18    13    1
     4    21    22    2
     5    21    23    1
     6    15    16    1
     7    15    14    1
     8    17    16    1
     9    17    12    1
    10    13    14    1
    11    13    12    1
    12    13     8    1
    13    12    11    1
    14     7     8    1
    15     7     6    1
    16     8     9    1
    17     6     5    1
    18    11    10    1
    19     9    10    1
    20     9     4    1
    21     5     4    1
    22     5    19    1
    23     5     1    1
    24     4     3    1
    25     3     2    1
    26    26    24    2
    27     1     2    1
    28     1    24    1
    29    24    25    1
