@<TRIPOS>MOLECULE
ZINC47385747_replica-1.pdb
 21 21 0 0 0
SMALL
GASTEIGER

@<TRIPOS>ATOM
      1  C7         7.2690   37.1450   58.1100 C.3     0  <0>0        0.0942
      2  N1         6.2580   36.0970   57.9520 N.am    0  <0>0       -0.2987
      3  C6         5.1680   36.0860   58.7450 C.2     0  <0>0        0.2462
      4  O1         5.0240   36.9470   59.5930 O.2     0  <0>0       -0.2701
      5  H9         6.3730   35.4100   57.2760 H       0  <0>0        0.1500
      6  C5         4.1600   35.0390   58.5870 C.2     0  <0>0        0.0577
      7  C4         2.8580   35.3120   58.8300 C.2     0  <0>0        0.0043
      8  C3         1.8480   34.2640   58.6720 C.2     0  <0>0       -0.0044
      9  C2         0.8400   34.4350   57.8160 C.2     0  <0>0       -0.0258
     10  C1         0.7390   35.7060   57.0120 C.3     0  <0>0        0.0307
     11  C8         8.3980   36.6300   58.9640 C.ar    0  <0>0       -0.0044
     12  C13        8.9610   35.3970   58.6950 C.ar    0  <0>0       -0.0004
     13  C12       10.0000   34.9260   59.4750 C.ar    0  <0>0        0.0294
     14  C11       10.4700   35.6850   60.5330 C.ar    0  <0>0        0.1401
     15  C10        9.9020   36.9180   60.8050 C.ar    0  <0>0        0.0294
     16  F1        11.4820   35.2240   61.3000 F       0  <0>0       -0.2042
     17  C9         8.8660   37.3890   60.0210 C.ar    0  <0>0       -0.0004
     18  C14        7.8100   37.5430   56.7350 C.3     0  <0>0        0.0204
     19  C15        6.6620   38.0580   55.8640 C.3     0  <0>0        0.0020
     20  C16        8.8590   38.6460   56.9000 C.3     0  <0>0        0.0020
     21  C17        8.4500   36.3260   56.0670 C.3     0  <0>0        0.0020
@<TRIPOS>BOND
     1    19    18    1
     2    21    18    1
     3    18    20    1
     4    18     1    1
     5    10     9    1
     6     5     2    1
     7     9     8    2
     8     2     1    1
     9     2     3   am
    10     1    11    1
    11     6     3    1
    12     6     7    2
    13     8     7    1
    14    12    11   ar
    15    12    13   ar
    16     3     4    2
    17    11    17   ar
    18    13    14   ar
    19    17    15   ar
    20    14    15   ar
    21    14    16    1
