@<TRIPOS>MOLECULE
ZINC13389509_replica-1.pdb
 28 30 0 0 0
SMALL
GASTEIGER

@<TRIPOS>ATOM
      1  C8        -0.6110   30.5820   54.9280 C.3     0  <0>0        0.0937
      2  C7        -0.1200   29.1420   55.0960 C.3     0  <0>0        0.0536
      3  C4        -0.7520   28.5360   56.3210 C.ar    0  <0>0       -0.0179
      4  C3         0.0440   28.0870   57.3590 C.ar    0  <0>0       -0.0039
      5  C2        -0.5360   27.5300   58.4840 C.ar    0  <0>0       -0.0003
      6  C1        -1.9110   27.4220   58.5710 C.ar    0  <0>0       -0.0000
      7  C6        -2.7070   27.8720   57.5350 C.ar    0  <0>0       -0.0003
      8  C5        -2.1270   28.4330   56.4120 C.ar    0  <0>0       -0.0039
      9  C17       -0.5020   28.3350   53.8810 C.ar    0  <0>0       -0.0179
     10  C22       -1.3490   28.8740   52.9320 C.ar    0  <0>0       -0.0039
     11  C21       -1.6980   28.1330   51.8180 C.ar    0  <0>0       -0.0003
     12  C20       -1.2020   26.8530   51.6550 C.ar    0  <0>0       -0.0000
     13  C19       -0.3550   26.3150   52.6050 C.ar    0  <0>0       -0.0003
     14  C18       -0.0010   27.0580   53.7170 C.ar    0  <0>0       -0.0039
     15  C9         0.1030   31.4730   55.9100 C.2     0  <0>0        0.2233
     16  O1        -0.5330   32.1260   56.7100 O.2     0  <0>0       -0.2751
     17  N1         1.4480   31.5460   55.9010 N.am    0  <0>0       -0.3012
     18  H10        1.9610   30.9650   55.3160 H       0  <0>0        0.1497
     19  C10        2.1370   32.5010   56.7720 C.3     0  <0>0        0.1113
     20  C11        2.9230   33.4970   55.9170 C.3     0  <0>0        0.1386
     21  C12        2.4450   34.8960   56.2070 C.2     0  <0>0        0.3669
     22  O2         3.1890   35.8340   56.0440 O.co2   0  <0>0       -0.2456
     23  O3         1.1920   35.1000   56.6440 O.co2   0  <0>0       -0.2456
     24  C13        3.0850   31.7600   57.6790 C.ar    0  <0>0        0.0256
     25  S1         2.7160   30.7050   59.0710 S.2     0  <0>0       -0.0891
     26  C16        4.3920   30.2840   59.5200 C.ar    0  <0>0        0.0352
     27  C15        5.1100   30.9660   58.5940 C.ar    0  <0>0        0.0072
     28  C14        4.4400   31.7220   57.6500 C.ar    0  <0>0        0.0043
@<TRIPOS>BOND
     1    12    11   ar
     2    12    13   ar
     3    11    10   ar
     4    13    14   ar
     5    10     9   ar
     6    14     9   ar
     7     9     2    1
     8     1     2    1
     9     1    15    1
    10     2     3    1
    11    18    17    1
    12    17    15   am
    13    17    19    1
    14    15    16    2
    15    20    21    1
    16    20    19    1
    17    22    21   ar
    18    21    23   ar
    19     3     8   ar
    20     3     4   ar
    21     8     7   ar
    22    19    24    1
    23     4     5   ar
    24     7     6   ar
    25    28    24   ar
    26    28    27   ar
    27    24    25   ar
    28     5     6   ar
    29    27    26   ar
    30    25    26   ar
