@<TRIPOS>MOLECULE
ZINC06239295_replica-1.pdb
 25 26 0 0 0
SMALL
GASTEIGER

@<TRIPOS>ATOM
      1  C10       -0.5700   31.2920   56.6490 C.2     0  <0>0        0.1389
      2  S1         0.1710   30.8270   58.1210 S.2     0  <0>0       -0.0182
      3  N2        -0.1320   32.3840   55.9910 N.am    0  <0>0       -0.2957
      4  H13       -0.6030   32.6950   55.2020 H       0  <0>0        0.1539
      5  N1        -1.5920   30.5680   56.1510 N.am    0  <0>0       -0.2957
      6  H12       -2.4790   30.6580   56.5310 H       0  <0>0        0.1539
      7  C7        -1.3720   29.6900   55.0840 C.ar    0  <0>0        0.0495
      8  C6        -1.9680   29.9300   53.8520 C.ar    0  <0>0        0.0143
      9  C5        -1.7500   29.0610   52.8010 C.ar    0  <0>0       -0.0030
     10  C4        -0.9390   27.9540   52.9740 C.ar    0  <0>0       -0.0224
     11  C9        -0.3450   27.7140   54.1990 C.ar    0  <0>0       -0.0030
     12  C8        -0.5540   28.5810   55.2520 C.ar    0  <0>0        0.0143
     13  C2        -0.7030   27.0080   51.8250 C.3     0  <0>0        0.0224
     14  C1        -0.4860   25.5930   52.3650 C.3     0  <0>0        0.0047
     15  C3        -1.9200   27.0180   50.8980 C.3     0  <0>0        0.0047
     16  C11        1.0010   33.0670   56.4450 C.ar    0  <0>0        0.0495
     17  C16        0.8590   34.2290   57.1940 C.ar    0  <0>0        0.0143
     18  C15        1.9800   34.9000   57.6400 C.ar    0  <0>0       -0.0030
     19  C14        3.2410   34.4180   57.3440 C.ar    0  <0>0       -0.0227
     20  C13        3.3860   33.2620   56.5990 C.ar    0  <0>0       -0.0030
     21  C12        2.2690   32.5850   56.1490 C.ar    0  <0>0        0.0143
     22  C17        4.4620   35.1540   57.8340 C.3     0  <0>0        0.0189
     23  C18        4.0690   36.0820   58.9860 C.3     0  <0>0        0.0044
     24  C19        5.5020   34.1440   58.3250 C.3     0  <0>0        0.0044
     25  C20        5.0530   35.9810   56.6920 C.3     0  <0>0        0.0044
@<TRIPOS>BOND
     1    15    13    1
     2    13    14    1
     3    13    10    1
     4     9    10   ar
     5     9     8   ar
     6    10    11   ar
     7     8     7   ar
     8    11    12   ar
     9     7    12   ar
    10     7     5    1
    11     4     3    1
    12     3    16    1
    13     3     1    1
    14    21    16   ar
    15    21    20   ar
    16     5     6    1
    17     5     1    1
    18    16    17   ar
    19    20    19   ar
    20     1     2    2
    21    25    22    1
    22    17    18   ar
    23    19    18   ar
    24    19    22    1
    25    22    24    1
    26    22    23    1
