@<TRIPOS>MOLECULE
ZINC03373748_replica-1.pdb
 29 31 0 0 0
SMALL
GASTEIGER

@<TRIPOS>ATOM
      1  S2         6.2010   30.1340   59.4730 S.3     0  <0>0       -0.0768
      2  C9         7.1950   31.5890   59.5100 C.ar    0  <0>0        0.1611
      3  N3         7.4020   32.4340   60.5020 N.ar    0  <0>0       -0.1331
      4  N2         8.2300   33.5170   60.3150 N.ar    0  <0>0       -0.1249
      5  C8         8.8040   33.7110   59.1440 C.ar    0  <0>0        0.1865
      6  S1         8.1860   32.3170   58.2140 S.2     0  <0>0       -0.0242
      7  N1         9.6620   34.7290   58.7400 N.pl3   0  <0>0       -0.2916
      8  H8        10.6050   34.5440   58.6100 H       0  <0>0        0.1541
      9  C7         9.1640   36.0160   58.5230 C.ar    0  <0>0        0.0457
     10  C2         9.2680   36.9790   59.5180 C.ar    0  <0>0       -0.0084
     11  C1         9.9160   36.6360   60.8350 C.3     0  <0>0        0.0323
     12  C3         8.7800   38.2520   59.2990 C.ar    0  <0>0       -0.0030
     13  C4         8.1810   38.5660   58.0930 C.ar    0  <0>0       -0.0002
     14  C5         8.0720   37.6090   57.1010 C.ar    0  <0>0        0.0013
     15  C6         8.5620   36.3350   57.3120 C.ar    0  <0>0        0.0143
     16  C10        4.9210   30.4440   60.7200 C.3     0  <0>0        0.1492
     17  C11        3.9330   31.4500   60.1870 C.2     0  <0>0        0.2375
     18  O1         3.1460   31.1270   59.3230 O.2     0  <0>0       -0.2738
     19  N4         3.9240   32.7080   60.6710 N.am    0  <0>0       -0.2834
     20  H11        4.5110   32.9500   61.4040 H       0  <0>0        0.1549
     21  C12        3.0690   33.6650   60.1150 C.ar    0  <0>0        0.0463
     22  C17        3.5830   34.6810   59.3210 C.ar    0  <0>0       -0.0090
     23  C16        2.7370   35.6250   58.7740 C.ar    0  <0>0       -0.0031
     24  C15        1.3770   35.5580   59.0150 C.ar    0  <0>0       -0.0002
     25  C14        0.8600   34.5470   59.8060 C.ar    0  <0>0        0.0013
     26  C13        1.7010   33.5980   60.3520 C.ar    0  <0>0        0.0143
     27  C18        5.0660   34.7540   59.0560 C.3     0  <0>0        0.0236
     28  C19        5.3170   34.6920   57.5480 C.3     0  <0>0        0.0047
     29  C20        5.6190   36.0670   59.6120 C.3     0  <0>0        0.0047
@<TRIPOS>BOND
     1    14    15   ar
     2    14    13   ar
     3    15     9   ar
     4    28    27    1
     5    13    12   ar
     6     6     5   ar
     7     6     2   ar
     8     9     7    1
     9     9    10   ar
    10     8     7    1
    11     7     5    1
    12    23    24   ar
    13    23    22   ar
    14    24    25   ar
    15    27    22    1
    16    27    29    1
    17     5     4   ar
    18    12    10   ar
    19    22    21   ar
    20    18    17    2
    21     1     2    1
    22     1    16    1
    23     2     3   ar
    24    10    11    1
    25    25    26   ar
    26    21    26   ar
    27    21    19    1
    28    17    19   am
    29    17    16    1
    30     4     3   ar
    31    19    20    1
