@<TRIPOS>MOLECULE
ZINC08919644_replica-1.pdb
 33 37 0 0 0
SMALL
GASTEIGER

@<TRIPOS>ATOM
      1  C6         5.3700   29.7160   59.9310 C.3     0  <0>0        0.0052
      2  C7         6.8580   29.5610   59.6090 C.3     0  <0>0        0.0050
      3  C8         7.3230   30.7160   58.7200 C.3     0  <0>0        0.0268
      4  C9         6.9190   32.0300   59.3740 C.ar    0  <0>0       -0.0140
      5  C10        5.9640   32.0700   60.3320 C.ar    0  <0>0        0.0046
      6  S1         5.8440   33.7800   60.7800 S.2     0  <0>0       -0.0770
      7  C11        6.9930   34.4110   59.7640 C.ar    0  <0>0        0.0805
      8  C12        7.4970   33.3210   59.0460 C.ar    0  <0>0        0.0682
      9  C13        8.5490   33.5940   58.0330 C.2     0  <0>0        0.2203
     10  N1         9.1120   34.7720   58.0480 N.2     0  <0>0       -0.2118
     11  C14        8.8260   35.8110   59.0280 C.3     0  <0>0        0.2363
     12  N2         7.4580   35.6910   59.5650 N.pl3   0  <0>0       -0.3045
     13  C25        5.1870   30.9120   60.8780 C.3     0  <0>0        0.0327
     14  H18        6.9170   36.4700   59.7670 H       0  <0>0        0.1494
     15  C15        9.8100   35.7020   60.1640 C.ar    0  <0>0        0.1642
     16  O1        10.5570   34.6250   60.4520 O.2     0  <0>0       -0.4541
     17  C18       11.3230   34.8860   61.5290 C.ar    0  <0>0        0.1458
     18  C17       11.0530   36.1520   61.9430 C.ar    0  <0>0        0.0404
     19  C16       10.0820   36.6690   61.0630 C.ar    0  <0>0        0.0399
     20  C19       12.2850   33.9550   62.1560 C.ar    0  <0>0        0.0451
     21  C24       11.8610   32.6980   62.5960 C.ar    0  <0>0        0.0606
     22  C23       12.7660   31.8310   63.1740 C.ar    0  <0>0        0.0115
     23 Cl         10.2010   32.2260   62.4090 Cl      0  <0>0       -0.0821
     24  C22       14.0880   32.2100   63.3300 C.ar    0  <0>0        0.0009
     25  C21       14.5120   33.4550   62.9000 C.ar    0  <0>0        0.0002
     26  C20       13.6200   34.3290   62.3150 C.ar    0  <0>0        0.0039
     27  O2         8.9110   32.6560   57.1280 O.2     0  <0>0       -0.4921
     28  H25        8.4450   31.8140   57.2250 H       0  <0>0        0.2937
     29  C3         4.8550   28.4450   60.6070 C.3     0  <0>0        0.0003
     30  C4         5.1260   27.2400   59.7030 C.3     0  <0>0        0.0000
     31  C5         3.3490   28.5720   60.8510 C.3     0  <0>0        0.0000
     32  C2         5.5730   28.2500   61.9440 C.3     0  <0>0        0.0000
     33  C1         4.9330   27.0850   62.7020 C.3     0  <0>0        0.0000
@<TRIPOS>BOND
     1    27    28    1
     2    27     9    1
     3     9    10    2
     4     9     8    1
     5    10    11    1
     6     3     4    1
     7     3     2    1
     8    11    12    1
     9    11    15    1
    10     8     4   ar
    11     8     7   ar
    12     4     5   ar
    13    12     7    1
    14    12    14    1
    15     2     1    1
    16    30    29    1
    17     7     6   ar
    18     1    29    1
    19     1    13    1
    20    15    16   ar
    21    15    19   ar
    22     5     6   ar
    23     5    13    1
    24    16    17   ar
    25    29    31    1
    26    29    32    1
    27    19    18   ar
    28    17    18   ar
    29    17    20    1
    30    32    33    1
    31    20    26   ar
    32    20    21   ar
    33    26    25   ar
    34    23    21    1
    35    21    22   ar
    36    25    24   ar
    37    22    24   ar
