@<TRIPOS>MOLECULE
ZINC00431821_replica-1.pdb
 25 26 0 0 0
SMALL
GASTEIGER

@<TRIPOS>ATOM
      1  C9         1.4110   31.9240   56.3670 C.2     0  <0>0        0.2856
      2  O2         1.8510   31.6700   57.4680 O.2     0  <0>0       -0.2693
      3  N1         2.0260   32.8380   55.5900 N.am    0  <0>0       -0.2028
      4  H10        1.6740   33.0410   54.7090 H       0  <0>0        0.1774
      5  N2         3.1720   33.4950   56.0550 N.2     0  <0>0       -0.1775
      6  C10        3.1590   34.7820   56.2250 C.2     0  <0>0        0.1176
      7  C11        4.3670   35.4730   56.7140 C.ar    0  <0>0        0.0207
      8  C16        5.3510   35.8870   55.8130 C.ar    0  <0>0        0.0013
      9  C15        6.4780   36.5330   56.2770 C.ar    0  <0>0       -0.0042
     10  C14        6.6350   36.7720   57.6300 C.ar    0  <0>0       -0.0228
     11  C13        5.6650   36.3650   58.5280 C.ar    0  <0>0       -0.0042
     12  C12        4.5300   35.7220   58.0780 C.ar    0  <0>0        0.0013
     13  C17        7.8690   37.4780   58.1290 C.3     0  <0>0        0.0189
     14  C18        8.4340   38.3650   57.0170 C.3     0  <0>0        0.0044
     15  C19        7.5080   38.3450   59.3370 C.3     0  <0>0        0.0044
     16  C20        8.9190   36.4430   58.5390 C.3     0  <0>0        0.0044
     17  C8         0.1780   31.2170   55.8670 C.3     0  <0>0        0.2911
     18  O1         0.4940   29.8550   55.5740 O.3     0  <0>0       -0.4656
     19  C6        -0.1660   29.2770   54.5370 C.ar    0  <0>0        0.1390
     20  C5        -1.1390   29.9870   53.8500 C.ar    0  <0>0        0.0369
     21  C4        -1.8050   29.3990   52.7930 C.ar    0  <0>0        0.0028
     22  C3        -1.5100   28.0990   52.4240 C.ar    0  <0>0       -0.0041
     23  C2        -0.5420   27.3880   53.1110 C.ar    0  <0>0       -0.0188
     24  C1        -0.2230   25.9710   52.7070 C.3     0  <0>0        0.0311
     25  C7         0.1290   27.9720   54.1660 C.ar    0  <0>0        0.0327
@<TRIPOS>BOND
     1    22    21   ar
     2    22    23   ar
     3    24    23    1
     4    21    20   ar
     5    23    25   ar
     6    20    19   ar
     7    25    19   ar
     8    19    18    1
     9     4     3    1
    10    18    17    1
    11     3     5    1
    12     3     1   am
    13     8     9   ar
    14     8     7   ar
    15    17     1    1
    16     5     6    2
    17     6     7    1
    18     9    10   ar
    19     1     2    2
    20     7    12   ar
    21    14    13    1
    22    10    13    1
    23    10    11   ar
    24    12    11   ar
    25    13    16    1
    26    13    15    1
