@<TRIPOS>MOLECULE
ZINC00460822_replica-1.pdb
 18 19 0 0 0
SMALL
GASTEIGER

@<TRIPOS>ATOM
      1  S1         7.8260   37.3960   57.6530 S.O2    0  <0>0        0.0530
      2  O1         7.5340   38.7170   58.0880 O.2     0  <0>0       -0.1620
      3  O2         8.4180   37.1250   56.3900 O.2     0  <0>0       -0.1620
      4  C5         8.8860   36.6880   58.8690 C.ar    0  <0>0        0.1128
      5  C4         9.3870   35.4130   58.6900 C.ar    0  <0>0        0.0185
      6  C3        10.2200   34.8560   59.6430 C.ar    0  <0>0       -0.0029
      7  C2        10.5500   35.5760   60.7760 C.ar    0  <0>0       -0.0218
      8  C1        11.4570   34.9700   61.8160 C.3     0  <0>0        0.0310
      9  C7        10.0440   36.8500   60.9570 C.ar    0  <0>0       -0.0029
     10  C6         9.2160   37.4080   60.0020 C.ar    0  <0>0        0.0185
     11  C8         6.3090   36.5030   57.7000 C.2     0  <0>0        0.2439
     12  N1         5.9040   35.8290   56.6400 N.2     0  <0>0       -0.3729
     13  C10        4.7710   35.1460   56.6530 C.2     0  <0>0        0.1857
     14  S2         4.1850   35.4770   58.3090 S.3     0  <0>0       -0.0517
     15  C9         5.5500   36.5110   58.8230 C.3     0  <0>0        0.2039
     16 Cl          5.8290   37.3050   60.3420 Cl      0  <0>0       -0.0933
     17  S3         4.0340   34.1780   55.3790 S.3     0  <0>0       -0.0751
     18  C11        5.0250   34.5570   53.9090 C.3     0  <0>0        0.0772
@<TRIPOS>BOND
     1    18    17    1
     2    17    13    1
     3     3     1    2
     4    12    13    2
     5    12    11    2
     6    13    14    1
     7     1    11    1
     8     1     2    2
     9     1     4    1
    10    11    15    1
    11    14    15    1
    12     5     4   ar
    13     5     6   ar
    14    15    16    1
    15     4    10   ar
    16     6     7   ar
    17    10     9   ar
    18     7     9   ar
    19     7     8    1
