@<TRIPOS>MOLECULE
ZINC01446697_replica-1.pdb
 22 24 0 0 0
SMALL
GASTEIGER

@<TRIPOS>ATOM
      1  C6         9.3330   36.1320   59.0660 C.ar    0  <0>0        0.1460
      2  C7         9.3780   37.0790   60.0730 C.ar    0  <0>0        0.0406
      3  C8        10.1180   36.5210   61.1190 C.ar    0  <0>0        0.0406
      4  C9        10.4940   35.2690   60.7220 C.ar    0  <0>0        0.1453
      5  O2        10.0210   35.0480   59.4820 O.2     0  <0>0       -0.4535
      6  C5         8.6860   36.2760   57.8200 C.2     0  <0>0        0.0486
      7  C4         7.3290   36.1520   57.7360 C.2     0  <0>0        0.0880
      8  C3         6.4760   36.2570   56.5960 C.2     0  <0>0        0.2596
      9  S1         6.1370   35.8080   59.0230 S.3     0  <0>0       -0.0603
     10  N1         5.1770   36.0950   56.7770 N.am    0  <0>0       -0.2441
     11  O1         6.9320   36.4900   55.4910 O.2     0  <0>0       -0.2690
     12  C16        4.6720   35.8380   58.0030 C.2     0  <0>0        0.1212
     13  S2         3.0400   35.5960   58.4630 S.2     0  <0>0       -0.0272
     14  C2         4.2710   36.1950   55.6300 C.3     0  <0>0        0.0995
     15  C1         4.0830   34.8120   55.0050 C.3     0  <0>0        0.0237
     16  C10       11.2930   34.3190   61.5190 C.ar    0  <0>0        0.0346
     17  C15       10.7430   33.0950   61.9110 C.ar    0  <0>0        0.0039
     18  C14       11.4960   32.2110   62.6550 C.ar    0  <0>0        0.0115
     19  C13       12.7940   32.5340   63.0140 C.ar    0  <0>0        0.0577
     20  C12       13.3450   33.7450   62.6290 C.ar    0  <0>0        0.0115
     21 Cl         13.7350   31.4150   63.9520 Cl      0  <0>0       -0.0822
     22  C11       12.6050   34.6360   61.8800 C.ar    0  <0>0        0.0039
@<TRIPOS>BOND
     1    15    14    1
     2    11     8    2
     3    14    10    1
     4     8    10   am
     5     8     7    1
     6    10    12    1
     7     7     6    2
     8     7     9    1
     9     6     1    1
    10    12    13    2
    11    12     9    1
    12     1     5   ar
    13     1     2   ar
    14     5     4   ar
    15     2     3   ar
    16     4     3   ar
    17     4    16    1
    18    16    22   ar
    19    16    17   ar
    20    22    20   ar
    21    17    18   ar
    22    20    19   ar
    23    18    19   ar
    24    19    21    1
