@<TRIPOS>MOLECULE
ZINC35324446_replica-1.pdb
 28 31 0 0 0
SMALL
GASTEIGER

@<TRIPOS>ATOM
      1  C7         8.0400   36.3140   57.4210 C.3     0  <0>0        0.0704
      2  C8         8.4750   35.1970   56.4690 C.3     0  <0>0        0.0951
      3  C9         8.5830   33.8800   57.1800 C.2     0  <0>0        0.2245
      4  O1         8.2610   32.8680   56.5940 O.2     0  <0>0       -0.2750
      5  N1         9.0290   33.7850   58.4520 N.am    0  <0>0       -0.2857
      6  C10        9.2670   34.9690   59.1510 C.3     0  <0>0        0.1879
      7  C11        8.8190   36.1770   58.7040 C.2     0  <0>0        0.0746
      8  N2         9.1930   37.1080   59.5790 N.2     0  <0>0       -0.2530
      9  C12        9.8580   36.5430   60.5550 C.3     0  <0>0        0.2206
     10  N3         9.9260   35.1970   60.3190 N.pl3   0  <0>0       -0.2682
     11  H8         9.1800   32.9200   58.8660 H       0  <0>0        0.1512
     12  C13       10.5540   34.2360   61.1260 C.ar    0  <0>0        0.0506
     13  C18       11.8510   34.4440   61.5730 C.ar    0  <0>0        0.0185
     14  C17       12.4640   33.5000   62.3720 C.ar    0  <0>0        0.0726
     15  C16       11.7910   32.3430   62.7180 C.ar    0  <0>0        0.0039
     16  C15       10.5010   32.1310   62.2700 C.ar    0  <0>0        0.0012
     17  C14        9.8800   33.0740   61.4750 C.ar    0  <0>0        0.0146
     18  C19       13.8710   33.7270   62.8630 C.3     0  <0>0        0.4186
     19  F1        14.5830   34.4670   61.9140 F       0  <0>0       -0.1659
     20  F2        13.8340   34.4310   64.0720 F       0  <0>0       -0.1659
     21  F3        14.5010   32.4940   63.0620 F       0  <0>0       -0.1659
     22  C3         6.5650   36.1920   57.7070 C.ar    0  <0>0       -0.0158
     23  C2         6.0920   36.3780   58.9920 C.ar    0  <0>0       -0.0039
     24  C1         4.7390   36.2650   59.2550 C.ar    0  <0>0        0.0006
     25  C6         3.8590   35.9680   58.2310 C.ar    0  <0>0        0.0114
     26  C5         4.3320   35.7820   56.9440 C.ar    0  <0>0        0.0574
     27  C4         5.6850   35.8950   56.6820 C.ar    0  <0>0        0.0075
     28 Cl          3.2260   35.4100   55.6590 Cl      0  <0>0       -0.0823
@<TRIPOS>BOND
     1    28    26    1
     2     2     3    1
     3     2     1    1
     4     4     3    2
     5    27    26   ar
     6    27    22   ar
     7    26    25   ar
     8     3     5   am
     9     1    22    1
    10     1     7    1
    11    22    23   ar
    12    25    24   ar
    13     5    11    1
    14     5     6    1
    15     7     6    1
    16     7     8    2
    17    23    24   ar
    18     6    10    1
    19     8     9    1
    20    10     9    1
    21    10    12    1
    22    12    17   ar
    23    12    13   ar
    24    17    16   ar
    25    13    14   ar
    26    19    18    1
    27    16    15   ar
    28    14    15   ar
    29    14    18    1
    30    18    21    1
    31    18    20    1
