@<TRIPOS>MOLECULE
ZINC13457421_replica-1.pdb
 26 27 0 0 0
SMALL
GASTEIGER

@<TRIPOS>ATOM
      1  N1         7.9000   35.7100   58.0460 N.am    0  <0>0       -0.3015
      2  C11        7.8350   35.4330   56.7290 C.2     0  <0>0        0.2340
      3  O1         8.5050   36.0680   55.9430 O.2     0  <0>0       -0.2741
      4  H13        7.3640   35.2020   58.6750 H       0  <0>0        0.1497
      5  C4         8.7800   36.7760   58.5290 C.3     0  <0>0        0.0940
      6  C2         7.9350   37.9560   59.0120 C.3     0  <0>0        0.0222
      7  C1         7.8460   39.0070   57.9030 C.3     0  <0>0        0.0020
      8  C3         6.5300   37.4670   59.3660 C.3     0  <0>0        0.0020
      9  C5         9.6190   36.2590   59.6690 C.ar    0  <0>0       -0.0044
     10  C10       10.1830   34.9990   59.5970 C.ar    0  <0>0       -0.0004
     11  C9        10.9520   34.5240   60.6410 C.ar    0  <0>0        0.0294
     12  C8        11.1570   35.3110   61.7630 C.ar    0  <0>0        0.1401
     13  C7        10.5920   36.5730   61.8340 C.ar    0  <0>0        0.0294
     14  F1        11.9090   34.8480   62.7850 F       0  <0>0       -0.2042
     15  C6         9.8280   37.0480   60.7850 C.ar    0  <0>0       -0.0004
     16  C12        6.9290   34.3360   56.2320 C.3     0  <0>0        0.1469
     17  S1         6.0670   33.5840   57.6340 S.3     0  <0>0       -0.1037
     18  C13        4.6030   34.5650   57.6560 C.ar    0  <0>0        0.0320
     19  C18        3.8510   34.6860   58.8360 C.ar    0  <0>0        0.0854
     20  C17        2.6920   35.4680   58.8390 C.ar    0  <0>0        0.0071
     21  C16        2.2950   36.1120   57.6870 C.ar    0  <0>0        0.0002
     22  C15        3.0400   35.9890   56.5240 C.ar    0  <0>0        0.0005
     23  C14        4.1880   35.2270   56.5060 C.ar    0  <0>0        0.0064
     24  C19        4.2820   33.9960   60.0640 C.2     0  <0>0        0.3882
     25  O2         3.8020   32.9190   60.3550 O.co2   0  <0>0       -0.2405
     26  O3         5.2080   34.5600   60.8640 O.co2   0  <0>0       -0.2405
@<TRIPOS>BOND
     1     3     2    2
     2    16     2    1
     3    16    17    1
     4    23    22   ar
     5    23    18   ar
     6    22    21   ar
     7     2     1   am
     8    17    18    1
     9    18    19   ar
    10    21    20   ar
    11     7     6    1
    12     1     5    1
    13     1     4    1
    14     5     6    1
    15     5     9    1
    16    19    20   ar
    17    19    24    1
    18     6     8    1
    19    10     9   ar
    20    10    11   ar
    21     9    15   ar
    22    24    25   ar
    23    24    26   ar
    24    11    12   ar
    25    15    13   ar
    26    12    13   ar
    27    12    14    1
