@<TRIPOS>MOLECULE
ZINC01195455_replica-1.pdb
 32 37 0 0 0
SMALL
GASTEIGER

@<TRIPOS>ATOM
      1  N1         5.3480   35.3190   59.1350 N.am    0  <0>0       -0.2084
      2  C9         5.7550   36.3200   59.9250 C.2     0  <0>0        0.2358
      3  O1         5.2070   37.3960   60.0360 O.2     0  <0>0       -0.2741
      4  C10        7.0080   35.8950   60.6590 C.3     0  <0>0        0.0948
      5  C11        7.2580   34.4640   60.1510 C.3     0  <0>0        0.0964
      6  C12        6.1160   34.2240   59.1880 C.2     0  <0>0        0.2358
      7  O2         5.9280   33.2030   58.5610 O.2     0  <0>0       -0.2741
      8  C13        8.5980   34.3710   59.3910 C.3     0  <0>0        0.0727
      9  C14        8.5180   35.4240   58.2980 C.ar    0  <0>0       -0.0198
     10  C15        8.6470   35.1720   56.9610 C.ar    0  <0>0       -0.0042
     11  C16        8.5520   36.2320   56.0680 C.ar    0  <0>0       -0.0003
     12  C17        8.3300   37.5170   56.5270 C.ar    0  <0>0       -0.0003
     13  C18        8.2000   37.7660   57.8880 C.ar    0  <0>0       -0.0042
     14  C19        8.2940   36.7190   58.7600 C.ar    0  <0>0       -0.0215
     15  C20        8.1580   36.8470   60.2690 C.3     0  <0>0        0.0531
     16  C21        9.4230   36.1980   60.8090 C.ar    0  <0>0       -0.0215
     17  C22        9.6500   34.8850   60.3610 C.ar    0  <0>0       -0.0198
     18  C23       10.7410   34.1760   60.7750 C.ar    0  <0>0       -0.0042
     19  C24       11.6250   34.7680   61.6690 C.ar    0  <0>0       -0.0003
     20  C25       11.4000   36.0530   62.1270 C.ar    0  <0>0       -0.0003
     21  C26       10.2890   36.7890   61.6850 C.ar    0  <0>0       -0.0042
     22  C8         4.2080   35.4080   58.3240 C.ar    0  <0>0        0.0566
     23  C3         2.9980   34.8890   58.7640 C.ar    0  <0>0       -0.0081
     24  C4         1.8750   34.9840   57.9650 C.ar    0  <0>0       -0.0030
     25  C5         1.9570   35.5900   56.7250 C.ar    0  <0>0       -0.0002
     26  C6         3.1620   36.1030   56.2810 C.ar    0  <0>0        0.0013
     27  C7         4.2880   36.0110   57.0760 C.ar    0  <0>0        0.0150
     28  C2         2.9080   34.2290   60.1150 C.3     0  <0>0        0.0276
     29  C1         1.4570   33.8320   60.3940 C.3     0  <0>0        0.0051
     30  C27        8.8960   32.9630   58.8730 C.3     0  <0>0        0.1455
     31  O3         8.4040   31.9980   59.8070 O.3     0  <0>0       -0.3813
     32  H23        9.0860   31.4150   60.1670 H       0  <0>0        0.2105
@<TRIPOS>BOND
     1    11    12   ar
     2    11    10   ar
     3    26    25   ar
     4    26    27   ar
     5    12    13   ar
     6    25    24   ar
     7    10     9   ar
     8    27    22   ar
     9    13    14   ar
    10    24    23   ar
    11     9    14   ar
    12     9     8    1
    13    22    23   ar
    14    22     1    1
    15     7     6    2
    16    14    15    1
    17    23    28    1
    18    30     8    1
    19    30    31    1
    20     1     6   am
    21     1     2   am
    22     6     5    1
    23     8     5    1
    24     8    17    1
    25    31    32    1
    26     2     3    2
    27     2     4    1
    28    28    29    1
    29     5     4    1
    30    15     4    1
    31    15    16    1
    32    17    18   ar
    33    17    16   ar
    34    18    19   ar
    35    16    21   ar
    36    19    20   ar
    37    21    20   ar
