@<TRIPOS>MOLECULE
ZINC59269405_replica-1.pdb
 22 23 0 0 0
SMALL
GASTEIGER

@<TRIPOS>ATOM
      1  C10        9.9690   35.9970   60.0040 C.2     0  <0>0        0.0033
      2  C11       10.6230   34.9030   60.4540 C.2     0  <0>0        0.0420
      3  C7         9.1830   35.9250   58.7640 C.ar    0  <0>0        0.0003
      4  C6         8.8560   34.6810   58.2110 C.ar    0  <0>0        0.0031
      5  C5         8.1190   34.6180   57.0500 C.ar    0  <0>0        0.0369
      6  C4         7.7000   35.7880   56.4280 C.ar    0  <0>0        0.1384
      7  C9         8.0260   37.0260   56.9690 C.ar    0  <0>0        0.0369
      8  C8         8.7580   37.1000   58.1330 C.ar    0  <0>0        0.0031
      9  O1         6.9740   35.7220   55.2830 O.3     0  <0>0       -0.4792
     10  C2         5.6690   35.1460   55.3740 C.3     0  <0>0        0.1661
     11  C1         4.6580   36.2300   55.7550 C.3     0  <0>0        0.0472
     12  C3         5.2830   34.5430   54.0220 C.3     0  <0>0        0.0472
     13  C12       11.3820   34.9720   61.6500 C.2     0  <0>0        0.1956
     14  O2        11.6020   36.0510   62.1690 O.2     0  <0>0       -0.2866
     15  C13       11.9030   33.7350   62.2670 C.ar    0  <0>0        0.0392
     16  C18       11.0280   32.7000   62.6090 C.ar    0  <0>0        0.0063
     17  C17       11.5200   31.5470   63.1800 C.ar    0  <0>0        0.0370
     18  C16       12.8810   31.4180   63.4270 C.ar    0  <0>0        0.1387
     19  C15       13.7540   32.4470   63.0940 C.ar    0  <0>0        0.0370
     20  C14       13.2720   33.6000   62.5170 C.ar    0  <0>0        0.0063
     21  O3        13.3600   30.2810   63.9960 O.3     0  <0>0       -0.4714
     22  C19       12.4140   29.4330   64.6480 C.3     0  <0>0        0.2525
@<TRIPOS>BOND
     1    12    10    1
     2     9    10    1
     3     9     6    1
     4    10    11    1
     5     6     7   ar
     6     6     5   ar
     7     7     8   ar
     8     5     4   ar
     9     8     3   ar
    10     4     3   ar
    11     3     1    1
    12     1     2    2
    13     2    13    1
    14    13    14    2
    15    13    15    1
    16    15    20   ar
    17    15    16   ar
    18    20    19   ar
    19    16    17   ar
    20    19    18   ar
    21    17    18   ar
    22    18    21    1
    23    21    22    1
