@<TRIPOS>MOLECULE
ZINC21983067_replica-1.pdb
 25 28 0 0 0
SMALL
GASTEIGER

@<TRIPOS>ATOM
      1  C3         8.5590   36.1180   57.4590 C.3     0  <0>0        0.1686
      2  C4         8.5920   35.5650   56.0200 C.3     0  <0>0        0.0436
      3  C5         7.6410   36.4540   55.1880 C.3     0  <0>0        0.0038
      4  C6         6.6550   37.0350   56.2460 C.3     0  <0>0        0.0035
      5  C7         7.5990   37.3140   57.4300 C.3     0  <0>0        0.0369
      6  C8         6.8660   37.5060   58.7370 C.3     0  <0>0        0.0035
      7  C9         5.9340   36.3290   59.0260 C.3     0  <0>0        0.0004
      8  C10        4.9240   36.2190   57.8780 C.3     0  <0>0        0.0035
      9  C11        5.6750   35.9120   56.5910 C.3     0  <0>0        0.0007
     10  C12        4.6600   35.7650   55.4490 C.3     0  <0>0        0.0044
     11  C13        3.9050   34.4510   55.6570 C.3     0  <0>0        0.0229
     12  C14        3.3770   34.3720   57.0550 C.2     0  <0>0       -0.0315
     13  C15        2.3710   33.5050   57.3360 C.2     0  <0>0        0.0843
     14  C16        1.9840   33.5050   58.7660 C.2     0  <0>0        0.1829
     15  O3         0.8260   33.6020   59.1130 O.2     0  <0>0       -0.2905
     16  C17        3.1080   33.3780   59.7720 C.3     0  <0>0        0.0704
     17  C18        4.2610   34.3070   59.3850 C.3     0  <0>0        0.0119
     18  C19        3.8790   35.1820   58.2030 C.3     0  <0>0        0.0165
     19  C20        2.6660   35.9730   58.6970 C.3     0  <0>0        0.0041
     20 Cl          1.6150   32.4990   56.1410 Cl      0  <0>0       -0.0799
     21  C21        8.4000   38.5850   57.1370 C.3     0  <0>0        0.0036
     22  O2         8.0630   35.1020   58.3720 O.3     0  <0>0       -0.4523
     23  C2         8.9780   34.3980   59.0560 C.2     0  <0>0        0.3174
     24  C1        10.1590   35.0980   59.6780 C.3     0  <0>0        0.1212
     25  O1         8.8560   33.2020   59.1730 O.2     0  <0>0       -0.2501
@<TRIPOS>BOND
     1     3     2    1
     2     3     4    1
     3    10    11    1
     4    10     9    1
     5    11    12    1
     6     2     1    1
     7    20    13    1
     8     4     9    1
     9     4     5    1
    10     9     8    1
    11    12    13    2
    12    12    18    1
    13    21     5    1
    14    13    14    1
    15     5     1    1
    16     5     6    1
    17     1    22    1
    18     8    18    1
    19     8     7    1
    20    18    19    1
    21    18    17    1
    22    22    23    1
    23     6     7    1
    24    14    15    2
    25    14    16    1
    26    23    25    2
    27    23    24    1
    28    17    16    1
