@<TRIPOS>MOLECULE
ZINC20603839_replica-1.pdb
 28 30 0 0 0
SMALL
GASTEIGER

@<TRIPOS>ATOM
      1  C11        7.8740   35.1470   59.0730 C.2     0  <0>0        0.1323
      2  C12        8.1030   35.7670   57.8430 C.2     0  <0>0        0.0326
      3  C13        7.0450   36.0220   57.0080 C.2     0  <0>0        0.0681
      4  C14        5.7690   35.6460   57.4290 C.3     0  <0>0        0.1698
      5  C15        5.6040   35.0230   58.6820 C.2     0  <0>0        0.1774
      6  N1         6.6520   34.7980   59.4530 N.2     0  <0>0       -0.3903
      7  N2         4.3270   34.6690   59.0710 N.am    0  <0>0       -0.2467
      8  C16        3.2670   34.9070   58.2540 C.2     0  <0>0        0.1458
      9  N3         3.3820   35.4870   57.0770 N.am    0  <0>0       -0.2662
     10  C17        4.5730   35.8790   56.6010 C.2     0  <0>0        0.2391
     11  O1         4.6640   36.4130   55.5090 O.2     0  <0>0       -0.2739
     12  S1         1.6620   34.4270   58.8000 S.2     0  <0>0       -0.0179
     13  C18        4.1160   34.0230   60.3700 C.3     0  <0>0        0.1212
     14  H15        2.4880   35.6610   56.4600 H       0  <0>0        0.1565
     15  C8         9.0210   34.8730   59.9730 C.ar    0  <0>0        0.0296
     16  C7         9.8690   35.9100   60.3600 C.ar    0  <0>0        0.0022
     17  C6        10.9340   35.6490   61.1970 C.ar    0  <0>0       -0.0042
     18  C5        11.1620   34.3620   61.6520 C.ar    0  <0>0       -0.0228
     19  C10       10.3240   33.3300   61.2700 C.ar    0  <0>0       -0.0042
     20  C9         9.2530   33.5790   60.4370 C.ar    0  <0>0        0.0022
     21  C2        12.3270   34.0850   62.5660 C.3     0  <0>0        0.0189
     22  C1        13.6310   34.1560   61.7680 C.3     0  <0>0        0.0044
     23  C3        12.3570   35.1280   63.6850 C.3     0  <0>0        0.0044
     24  C4        12.1770   32.6890   63.1740 C.3     0  <0>0        0.0044
     25  C19        7.2550   36.6900   55.6740 C.3     0  <0>0        0.4159
     26  F1         6.5650   37.9070   55.6480 F       0  <0>0       -0.1661
     27  F2         8.6200   36.9230   55.4780 F       0  <0>0       -0.1661
     28  F3         6.7730   35.8590   54.6560 F       0  <0>0       -0.1661
@<TRIPOS>BOND
     1    28    25    1
     2    27    25    1
     3    11    10    2
     4    26    25    1
     5    25     3    1
     6    14     9    1
     7    10     9   am
     8    10     4    1
     9     3     4    1
    10     3     2    2
    11     9     8    1
    12     4     5    1
    13     2     1    1
    14     8    12    2
    15     8     7    1
    16     5     7    1
    17     5     6    2
    18     7    13    1
    19     1     6    2
    20     1    15    1
    21    15    16   ar
    22    15    20   ar
    23    16    17   ar
    24    20    19   ar
    25    17    18   ar
    26    19    18   ar
    27    18    21    1
    28    22    21    1
    29    21    24    1
    30    21    23    1
