@<TRIPOS>MOLECULE
ZINC37988880_replica-1.pdb
 20 21 0 0 0
SMALL
GASTEIGER

@<TRIPOS>ATOM
      1  C1         7.6520   36.3210   60.8230 C.3     0  <0>0       -0.0001
      2  C2         9.0550   36.6320   60.2970 C.3     0  <0>0       -0.0020
      3  C3         9.0750   38.0380   59.6970 C.3     0  <0>0       -0.0001
      4  C4         8.0700   38.1170   58.5460 C.3     0  <0>0       -0.0020
      5  C5         8.4490   37.0980   57.4690 C.3     0  <0>0       -0.0194
      6  C6         8.4290   35.6900   58.0680 C.3     0  <0>0       -0.0618
      7  C7         9.4320   35.6120   59.2200 C.3     0  <0>0       -0.0214
      8  N1         7.0810   35.3930   58.5730 N.4     0  <0>0        0.3851
      9  H14        7.0250   35.6420   59.5490 H       0  <0>0       -0.0844
     10  H32        6.4010   35.9250   58.0510 H       0  <0>0       -0.0844
     11  C8         6.8060   33.9590   58.4170 C.3     0  <0>0       -0.0792
     12  C9         6.8470   33.5890   56.9330 C.3     0  <0>0        0.0062
     13  C10        5.4250   33.5720   56.3710 C.3     0  <0>0        0.1132
     14  O1         4.6680   34.6510   56.9320 O.3     0  <0>0       -0.3563
     15  C13        4.2530   35.5520   55.8910 C.3     0  <0>0        0.1421
     16  C12        4.2380   34.6970   54.5990 C.3     0  <0>0        0.0346
     17  C11        5.4630   33.7750   54.8410 C.3     0  <0>0        0.0320
     18  C14        7.4440   37.1760   56.3180 C.3     0  <0>0       -0.0020
     19  C15        7.2250   38.6400   55.9310 C.3     0  <0>0       -0.0001
     20  C16        7.9870   36.4050   55.1130 C.3     0  <0>0       -0.0001
@<TRIPOS>BOND
     1    16    17    1
     2    16    15    1
     3    17    13    1
     4    20    18    1
     5    15    14    1
     6    19    18    1
     7    18     5    1
     8    13    14    1
     9    13    12    1
    10    12    11    1
    11     5     6    1
    12     5     4    1
    13    10     8    1
    14     6     8    1
    15     6     7    1
    16    11     8    1
    17     4     3    1
    18     8     9    1
    19     7     2    1
    20     3     2    1
    21     2     1    1
