@<TRIPOS>MOLECULE
ZINC06997055_replica-1.pdb
 26 29 0 0 0
SMALL
GASTEIGER

@<TRIPOS>ATOM
      1  C11       -1.5990   29.4510   55.9870 C.2     0  <0>0        0.0113
      2  C12       -0.4780   30.0950   56.4090 C.ar    0  <0>0        0.0867
      3  C13        0.4480   30.9570   55.6490 C.ar    0  <0>0        0.2640
      4  O1         0.2770   31.1900   54.4670 O.2     0  <0>0       -0.2667
      5  N1         1.4740   31.4640   56.3120 N.ar    0  <0>0       -0.3155
      6  H1         2.1070   32.0370   55.8510 H       0  <0>0        0.1694
      7  C14        1.6520   31.1900   57.6500 C.ar    0  <0>0        0.0928
      8  C15        2.6530   31.6280   58.4880 C.2     0  <0>0        0.0690
      9  S1         0.2650   30.1330   58.0330 S.2     0  <0>0       -0.0650
     10  C10       -1.9360   29.4240   54.5620 C.ar    0  <0>0        0.0006
     11  C4        -1.3950   28.3830   53.6860 C.ar    0  <0>0        0.0000
     12  C3        -0.5420   27.3870   54.1740 C.ar    0  <0>0        0.0000
     13  C5        -1.7470   28.3940   52.3140 C.ar    0  <0>0        0.0000
     14  C2        -0.0600   26.4370   53.3220 C.ar    0  <0>0        0.0000
     15  C1        -0.4040   26.4430   51.9740 C.ar    0  <0>0        0.0000
     16  C6        -1.2310   27.3990   51.4650 C.ar    0  <0>0        0.0000
     17  C7        -2.6020   29.3970   51.8280 C.ar    0  <0>0        0.0000
     18  C8        -3.0940   30.3560   52.6600 C.ar    0  <0>0        0.0000
     19  C9        -2.7780   30.3870   54.0100 C.ar    0  <0>0        0.0000
     20  C16        3.6640   32.4690   57.9960 C.2     0  <0>0        0.2318
     21  O2         4.5720   32.0040   57.3230 O.2     0  <0>0       -0.2832
     22  C17        3.6300   33.9100   58.2900 C.ar    0  <0>0        0.1842
     23  O3         4.6840   34.6690   58.6540 O.2     0  <0>0       -0.4472
     24  C20        4.2790   35.9340   58.8350 C.ar    0  <0>0        0.1798
     25  C19        2.9520   36.0030   58.5990 C.ar    0  <0>0        0.0439
     26  C18        2.5260   34.7110   58.2490 C.ar    0  <0>0        0.0441
@<TRIPOS>BOND
     1    16    15   ar
     2    16    13   ar
     3    17    13   ar
     4    17    18   ar
     5    15    14   ar
     6    13    11   ar
     7    18    19   ar
     8    14    12   ar
     9    11    12   ar
    10    11    10   ar
    11    19    10   ar
    12     4     3    2
    13    10     1    1
    14     3     5   ar
    15     3     2   ar
    16     6     5    1
    17     1     2    2
    18     5     7   ar
    19     2     9   ar
    20    21    20    2
    21     7     9   ar
    22     7     8    2
    23    20    22    1
    24    20     8    1
    25    26    22   ar
    26    26    25   ar
    27    22    23   ar
    28    25    24   ar
    29    23    24   ar
