@<TRIPOS>MOLECULE
ZINC11825268_replica-1.pdb
 25 27 0 0 0
SMALL
GASTEIGER

@<TRIPOS>ATOM
      1  C12        5.4390   36.3530   55.9280 C.3     0  <0>0        0.2525
      2  C11        6.8060   36.0940   55.2920 C.3     0  <0>0        0.2525
      3  O1         7.7050   37.1450   55.6510 O.3     0  <0>0       -0.4714
      4  C6         8.1820   37.1410   56.9240 C.ar    0  <0>0        0.1387
      5  C5         8.8260   36.0340   57.3990 C.ar    0  <0>0        0.0369
      6  C4         9.3180   36.0290   58.7140 C.ar    0  <0>0        0.0030
      7  C3         9.9860   34.9090   59.2380 C.ar    0  <0>0        0.0001
      8  C9         9.1410   37.1760   59.5290 C.ar    0  <0>0        0.0002
      9  C2        10.4560   34.9410   60.5140 C.ar    0  <0>0        0.0000
     10  C1        10.2770   36.0650   61.3170 C.ar    0  <0>0        0.0000
     11  C10        9.6360   37.1700   60.8440 C.ar    0  <0>0        0.0000
     12  C8         8.4740   38.2970   59.0060 C.ar    0  <0>0        0.0031
     13  C7         8.0080   38.2710   57.7290 C.ar    0  <0>0        0.0369
     14  O2         5.0270   35.1960   56.6590 O.3     0  <0>0       -0.4714
     15  C13        5.4220   35.1120   57.9550 C.ar    0  <0>0        0.1403
     16  C18        6.0710   33.9600   58.4200 C.ar    0  <0>0        0.0535
     17  C17        6.4730   33.8870   59.7570 C.ar    0  <0>0        0.0048
     18  C16        6.2300   34.9440   60.6060 C.ar    0  <0>0        0.0003
     19  C15        5.5880   36.0810   60.1420 C.ar    0  <0>0        0.0031
     20  C14        5.1910   36.1690   58.8220 C.ar    0  <0>0        0.0370
     21  C19        6.3270   32.8340   57.5060 C.2     0  <0>0        0.0810
     22  S1         7.9360   32.4060   57.1040 S.2     0  <0>0       -0.0351
     23  N1         5.2960   32.1390   56.9860 N.am    0  <0>0       -0.3516
     24  H16        4.3840   32.3810   57.2140 H       0  <0>0        0.1428
     25  H17        5.4640   31.3970   56.3850 H       0  <0>0        0.1428
@<TRIPOS>BOND
     1     2     3    1
     2     2     1    1
     3     3     4    1
     4     1    14    1
     5    25    23    1
     6    14    15    1
     7     4     5   ar
     8     4    13   ar
     9    23    24    1
    10    23    21    1
    11    22    21    2
    12     5     6   ar
    13    21    16    1
    14    13    12   ar
    15    15    16   ar
    16    15    20   ar
    17    16    17   ar
    18     6     7   ar
    19     6     8   ar
    20    20    19   ar
    21    12     8   ar
    22     7     9   ar
    23     8    11   ar
    24    17    18   ar
    25    19    18   ar
    26     9    10   ar
    27    11    10   ar
