@<TRIPOS>MOLECULE
ZINC35698988_replica-1.pdb
 26 27 0 0 0
SMALL
GASTEIGER

@<TRIPOS>ATOM
      1  N1         7.6630   36.9800   58.8000 N.4     0  <0>0        0.3977
      2  H28        7.8140   35.9830   58.8260 H       0  <0>0       -0.0784
      3  C2         7.5230   37.4170   57.4050 C.3     0  <0>0       -0.0569
      4  C1         8.3510   38.6840   57.1820 C.3     0  <0>0       -0.0229
      5  C3         8.0210   36.3120   56.4710 C.3     0  <0>0       -0.0188
      6  C4         7.3790   34.9800   56.8690 C.3     0  <0>0       -0.0021
      7  C5         7.6390   36.6510   55.0290 C.3     0  <0>0       -0.0021
      8  C6         8.8080   37.6650   59.4150 C.3     0  <0>0       -0.0491
      9  C7         9.6690   36.6580   60.1330 C.ar    0  <0>0       -0.0432
     10  C12        9.8980   35.4170   59.5680 C.ar    0  <0>0       -0.0066
     11  C11       10.6910   34.4950   60.2260 C.ar    0  <0>0       -0.0047
     12  C10       11.2480   34.8110   61.4500 C.ar    0  <0>0       -0.0225
     13  C9        11.0150   36.0500   62.0180 C.ar    0  <0>0       -0.0047
     14  C8        10.2250   36.9730   61.3590 C.ar    0  <0>0       -0.0066
     15  C13       12.1100   33.8040   62.1690 C.3     0  <0>0        0.0224
     16  C14       12.7600   34.4660   63.3860 C.3     0  <0>0        0.0047
     17  C15       11.2460   32.6280   62.6280 C.3     0  <0>0        0.0047
     18  C16        6.4390   37.3100   59.5410 C.3     0  <0>0        0.0247
     19  C17        5.6980   36.0410   59.8780 C.2     0  <0>0        0.2310
     20  O1         6.1580   35.0620   60.6700 O.2     0  <0>0       -0.4481
     21  C19        5.2240   34.1020   60.7380 C.3     0  <0>0        0.2730
     22  C18        4.1790   34.5090   59.9620 C.2     0  <0>0        0.2350
     23  N2         4.5170   35.7230   59.4450 N.2     0  <0>0       -0.3672
     24  C20        2.9270   33.7760   59.7270 C.2     0  <0>0        0.4165
     25  O2         2.1760   33.5330   60.6640 O.co2   0  <0>0       -0.2379
     26  O3         2.6340   33.4100   58.5980 O.co2   0  <0>0       -0.2379
@<TRIPOS>BOND
     1     7     5    1
     2     5     6    1
     3     5     3    1
     4     4     3    1
     5     3     1    1
     6    26    24   ar
     7     1     2    1
     8     1     8    1
     9     1    18    1
    10     8     9    1
    11    23    19    2
    12    23    22    2
    13    18    19    1
    14    10     9   ar
    15    10    11   ar
    16    24    22    1
    17    24    25   ar
    18    19    20    1
    19    22    21    1
    20     9    14   ar
    21    11    12   ar
    22    20    21    1
    23    14    13   ar
    24    12    13   ar
    25    12    15    1
    26    15    17    1
    27    15    16    1
