@<TRIPOS>MOLECULE
ZINC65778937_replica-1.pdb
 26 28 0 0 0
SMALL
GASTEIGER

@<TRIPOS>ATOM
      1  C12        7.7020   37.9300   56.6690 C.2     0  <0>0        0.2232
      2  O1         7.3180   38.7550   55.8680 O.2     0  <0>0       -0.2751
      3  N1         7.2600   36.6580   56.5900 N.am    0  <0>0       -0.2955
      4  H16        7.5670   35.9990   57.2310 H       0  <0>0        0.1499
      5  C11        8.6700   38.3250   57.7530 C.3     0  <0>0        0.0897
      6  C10        8.1100   37.9080   59.1140 C.3     0  <0>0        0.0359
      7  C7         9.0720   36.9630   59.7860 C.ar    0  <0>0       -0.0217
      8  C6         9.6000   37.2780   61.0230 C.ar    0  <0>0       -0.0046
      9  C5        10.4830   36.4100   61.6400 C.ar    0  <0>0       -0.0046
     10  C4        10.8350   35.2270   61.0190 C.ar    0  <0>0       -0.0225
     11  C9        10.3110   34.9140   59.7790 C.ar    0  <0>0       -0.0046
     12  C8         9.4250   35.7800   59.1640 C.ar    0  <0>0       -0.0046
     13  C2        11.7970   34.2810   61.6900 C.3     0  <0>0        0.0224
     14  C1        12.3660   34.9400   62.9480 C.3     0  <0>0        0.0047
     15  C3        11.0610   32.9950   62.0760 C.3     0  <0>0        0.0047
     16  C13        6.3180   36.2730   55.5360 C.3     0  <0>0        0.1934
     17  C14        4.9380   36.1320   56.1230 C.2     0  <0>0        0.3135
     18  O2         3.8140   36.6530   55.6130 O.2     0  <0>0       -0.3137
     19  N3         2.7620   36.2680   56.4830 N.2     0  <0>0       -0.0067
     20  C15        3.3120   35.5620   57.4430 C.1     0  <0>0        0.1330
     21  N2         4.6370   35.4870   57.2130 N.2     0  <0>0       -0.3104
     22  C16        2.5990   34.9550   58.5850 C.ar    0  <0>0        0.1063
     23  S1         3.1580   33.6940   59.7190 S.2     0  <0>0       -0.0753
     24  C19        1.6890   33.5920   60.7280 C.ar    0  <0>0        0.0362
     25  C18        0.8760   34.5080   60.1400 C.ar    0  <0>0        0.0082
     26  C17        1.3340   35.2070   59.0460 C.ar    0  <0>0        0.0182
@<TRIPOS>BOND
     1    16    17    1
     2    16     3    1
     3    18    17    1
     4    18    19    1
     5     2     1    2
     6    17    21    2
     7    19    20    2
     8     3     1   am
     9     3     4    1
    10     1     5    1
    11    21    20    2
    12    20    22    1
    13     5     6    1
    14    22    26   ar
    15    22    23   ar
    16    26    25   ar
    17     6     7    1
    18    12    11   ar
    19    12     7   ar
    20    23    24   ar
    21    11    10   ar
    22     7     8   ar
    23    25    24   ar
    24    10     9   ar
    25    10    13    1
    26     8     9   ar
    27    13    15    1
    28    13    14    1
