@<TRIPOS>MOLECULE
ZINC37763806_replica-1.pdb
 22 23 0 0 0
SMALL
GASTEIGER

@<TRIPOS>ATOM
      1  N1        -0.0610   28.3850   55.0900 N.pl3   0  <0>0       -0.3311
      2  H10        0.8840   28.5070   55.2730 H       0  <0>0        0.1470
      3  C8        -0.4710   27.8190   53.8810 C.ar    0  <0>0        0.0367
      4  C3        -1.2260   28.5640   52.9850 C.ar    0  <0>0       -0.0094
      5  C4        -1.6250   28.0030   51.7880 C.ar    0  <0>0       -0.0031
      6  C5        -1.2780   26.7000   51.4820 C.ar    0  <0>0       -0.0006
      7  C6        -0.5310   25.9530   52.3760 C.ar    0  <0>0       -0.0031
      8  C7        -0.1280   26.5080   53.5750 C.ar    0  <0>0       -0.0090
      9  C18        0.6870   25.6940   54.5460 C.3     0  <0>0        0.0323
     10  C2        -1.6050   29.9850   53.3160 C.3     0  <0>0        0.0276
     11  C1        -2.9910   30.2890   52.7410 C.3     0  <0>0        0.0051
     12  C9        -1.0580   28.7940   56.0820 C.3     0  <0>0        0.0918
     13  C10       -1.3980   27.6060   56.9830 C.3     0  <0>0        0.0241
     14  C11       -2.8190   27.7690   57.5280 C.3     0  <0>0        0.0021
     15  C12       -0.5000   29.9170   56.9210 C.ar    0  <0>0       -0.0044
     16  C17        0.3280   29.6330   57.9910 C.ar    0  <0>0        0.0004
     17  C16        0.8440   30.6590   58.7570 C.ar    0  <0>0        0.0363
     18  C15        0.5230   31.9760   58.4590 C.ar    0  <0>0        0.1337
     19  C14       -0.3130   32.2570   57.3890 C.ar    0  <0>0        0.0363
     20  C13       -0.8230   31.2280   56.6220 C.ar    0  <0>0        0.0004
     21  O1         1.0260   32.9860   59.2150 O.3     0  <0>0       -0.5055
     22  H20        1.6870   33.5260   58.7600 H       0  <0>0        0.2922
@<TRIPOS>BOND
     1     6     5   ar
     2     6     7   ar
     3     5     4   ar
     4     7     8   ar
     5    11    10    1
     6     4    10    1
     7     4     3   ar
     8     8     3   ar
     9     8     9    1
    10     3     1    1
    11     1     2    1
    12     1    12    1
    13    12    15    1
    14    12    13    1
    15    20    15   ar
    16    20    19   ar
    17    15    16   ar
    18    13    14    1
    19    19    18   ar
    20    16    17   ar
    21    18    17   ar
    22    18    21    1
    23    22    21    1
