@<TRIPOS>MOLECULE
ZINC40742079_replica-1.pdb
 29 30 0 0 0
SMALL
GASTEIGER

@<TRIPOS>ATOM
      1  C3         5.3400   35.2620   58.4980 C.ar    0  <0>0        0.1727
      2  C4         3.9820   35.5320   58.4400 C.ar    0  <0>0        0.0338
      3  C5         3.3870   35.8300   57.2290 C.ar    0  <0>0       -0.0397
      4  C6         4.1430   35.8600   56.0720 C.ar    0  <0>0        0.0083
      5  C7         5.4990   35.5920   56.1220 C.ar    0  <0>0        0.0942
      6  C8         6.1040   35.2980   57.3360 C.ar    0  <0>0        0.1831
      7 Cl          6.4470   35.6290   54.6680 Cl      0  <0>0       -0.0790
      8  O2         7.4380   35.0400   57.3880 O.3     0  <0>0       -0.4667
      9  C9         8.3140   36.1660   57.4630 C.3     0  <0>0        0.2330
     10  C10        9.0640   36.1330   58.7690 C.ar    0  <0>0        0.0319
     11  C15        8.9310   37.1740   59.6700 C.ar    0  <0>0        0.0594
     12  C14        9.6160   37.1420   60.8710 C.ar    0  <0>0        0.0408
     13 Cl          7.8980   38.5190   59.2960 Cl      0  <0>0       -0.0824
     14  C13       10.4430   36.0710   61.1660 C.ar    0  <0>0        0.1410
     15  C12       10.5800   35.0320   60.2610 C.ar    0  <0>0        0.0295
     16  F1        11.1170   36.0400   62.3370 F       0  <0>0       -0.2041
     17  C11        9.8900   35.0640   59.0640 C.ar    0  <0>0        0.0025
     18  O1         5.9270   34.9690   59.6890 O.3     0  <0>0       -0.4724
     19  C2         6.0260   33.5870   60.0400 C.3     0  <0>0        0.2057
     20  C1         5.0610   33.2820   61.1890 C.3     0  <0>0        0.0512
     21  C16        1.9100   36.1230   57.1690 C.3     0  <0>0       -0.0541
     22  N1         1.2650   35.2000   56.2240 N.4     0  <0>0        0.3865
     23  H15        0.3600   35.5620   55.9650 H       0  <0>0       -0.0840
     24  H27        1.8400   35.1080   55.3990 H       0  <0>0       -0.0840
     25  C17        1.1040   33.8840   56.8570 C.3     0  <0>0       -0.0813
     26  C18        0.0990   33.9910   58.0060 C.3     0  <0>0       -0.0233
     27  C19        0.6410   33.2460   59.2280 C.3     0  <0>0       -0.0021
     28  C20        1.9160   32.4930   58.8430 C.3     0  <0>0       -0.0001
     29  C21        0.9570   34.2500   60.3380 C.3     0  <0>0       -0.0001
@<TRIPOS>BOND
     1     7     5    1
     2    24    22    1
     3    23    22    1
     4     4     5   ar
     5     4     3   ar
     6     5     6   ar
     7    22    25    1
     8    22    21    1
     9    25    26    1
    10    21     3    1
    11     3     2   ar
    12     6     8    1
    13     6     1   ar
    14     8     9    1
    15     9    10    1
    16    26    27    1
    17     2     1   ar
    18     1    18    1
    19    10    17   ar
    20    10    11   ar
    21    28    27    1
    22    17    15   ar
    23    27    29    1
    24    13    11    1
    25    11    12   ar
    26    18    19    1
    27    19    20    1
    28    15    14   ar
    29    12    14   ar
    30    14    16    1
