@<TRIPOS>MOLECULE
ZINC48439319_replica-1.pdb
 22 23 0 0 0
SMALL
GASTEIGER

@<TRIPOS>ATOM
      1  C7        11.1430   35.2400   61.5790 C.ar    0  <0>0        0.1107
      2  C8        10.6050   36.4830   61.6800 C.ar    0  <0>0        0.0230
      3  C9         9.8400   36.7170   60.5130 C.ar    0  <0>0        0.0171
      4  C10        9.0720   37.8010   60.0670 C.ar    0  <0>0        0.0012
      5  C11        8.4320   37.7310   58.8640 C.ar    0  <0>0       -0.0042
      6  C12        8.5340   36.5930   58.0740 C.ar    0  <0>0       -0.0211
      7  C13        9.2820   35.5150   58.4910 C.ar    0  <0>0        0.0127
      8  C14        9.9450   35.5620   59.7140 C.ar    0  <0>0        0.0564
      9  N2        10.7520   34.6730   60.3820 N.ar    0  <0>0       -0.3496
     10  H2        11.0040   33.7910   60.0660 H       0  <0>0        0.1661
     11  C6        12.0090   34.6020   62.5820 C.2     0  <0>0        0.2615
     12  N1        12.5060   33.3690   62.3570 N.am    0  <0>0       -0.3013
     13  H13       12.2930   32.9030   61.5340 H       0  <0>0        0.1497
     14  O1        12.2770   35.1870   63.6150 O.2     0  <0>0       -0.2686
     15  C4        13.3690   32.7330   63.3560 C.3     0  <0>0        0.0720
     16  C5        14.8200   33.1620   63.1230 C.3     0  <0>0        0.0213
     17  C3        13.2600   31.2120   63.2300 C.3     0  <0>0        0.0196
     18  C2        11.9280   30.7460   63.8210 C.3     0  <0>0        0.0017
     19  C1        12.1170   29.3840   64.4920 C.3     0  <0>0        0.0001
     20  C15        7.8180   36.5370   56.7490 C.3     0  <0>0        0.0224
     21  C16        6.4420   35.8940   56.9400 C.3     0  <0>0        0.0047
     22  C17        7.6460   37.9550   56.2030 C.3     0  <0>0        0.0047
@<TRIPOS>BOND
     1    22    20    1
     2    20    21    1
     3    20     6    1
     4     6     7   ar
     5     6     5   ar
     6     7     8   ar
     7     5     4   ar
     8     8     9   ar
     9     8     3   ar
    10    10     9    1
    11     4     3   ar
    12     9     1   ar
    13     3     2   ar
    14    13    12    1
    15     1     2   ar
    16     1    11    1
    17    12    11   am
    18    12    15    1
    19    11    14    2
    20    16    15    1
    21    17    15    1
    22    17    18    1
    23    18    19    1
