@<TRIPOS>MOLECULE
ZINC06471174_replica-1.pdb
 28 31 0 0 0
SMALL
GASTEIGER

@<TRIPOS>ATOM
      1  N1         4.4020   35.3070   58.3590 N.ar    0  <0>0       -0.2165
      2  C8         4.1960   33.9720   58.2480 C.ar    0  <0>0        0.1337
      3  C9         2.9350   33.7030   58.7310 C.ar    0  <0>0        0.0365
      4  C10        2.3740   34.9020   59.1390 C.ar    0  <0>0        0.0894
      5  N2         3.2550   35.8680   58.9230 N.ar    0  <0>0       -0.1677
      6  C11        0.9600   34.8370   59.7150 C.3     0  <0>0        0.1050
      7  S1         0.7740   33.0390   60.0550 S.3     0  <0>0       -0.1288
      8  C12        2.0790   32.4500   58.9000 C.3     0  <0>0        0.0882
      9  N3         5.0970   33.0400   57.7380 N.am    0  <0>0       -0.2660
     10  C13        5.7340   32.1930   58.5700 C.2     0  <0>0        0.2507
     11  O1         5.5750   32.2870   59.7730 O.2     0  <0>0       -0.2698
     12  H11        5.2670   33.0010   56.7840 H       0  <0>0        0.1566
     13  C14        6.6170   31.1580   58.0280 C.2     0  <0>0        0.0581
     14  C15        7.9470   31.3690   57.9710 C.2     0  <0>0        0.0047
     15  C16        8.5450   32.5010   58.6980 C.ar    0  <0>0        0.0001
     16  C21        8.8130   33.7010   58.0330 C.ar    0  <0>0        0.0000
     17  C20        9.3730   34.7560   58.7220 C.ar    0  <0>0        0.0000
     18  C19        9.6670   34.6310   60.0680 C.ar    0  <0>0        0.0000
     19  C18        9.4040   33.4470   60.7340 C.ar    0  <0>0        0.0000
     20  C17        8.8400   32.3840   60.0600 C.ar    0  <0>0        0.0000
     21  C6         5.5610   36.0000   57.9820 C.ar    0  <0>0        0.0835
     22  C5         6.0200   35.9270   56.6740 C.ar    0  <0>0        0.0149
     23  C4         7.1610   36.6100   56.3050 C.ar    0  <0>0       -0.0207
     24  C3         7.8440   37.3710   57.2360 C.ar    0  <0>0       -0.0084
     25  C22        7.6610   36.5320   54.8850 C.3     0  <0>0        0.0311
     26  C2         7.3930   37.4410   58.5410 C.ar    0  <0>0       -0.0207
     27  C1         8.1420   38.2680   59.5540 C.3     0  <0>0        0.0311
     28  C7         6.2510   36.7610   58.9160 C.ar    0  <0>0        0.0149
@<TRIPOS>BOND
     1    25    23    1
     2    23    22   ar
     3    23    24   ar
     4    22    21   ar
     5    12     9    1
     6    24    26   ar
     7     9     2    1
     8     9    10   am
     9    14    13    2
    10    14    15    1
    11    21     1    1
    12    21    28   ar
    13    13    10    1
    14    16    15   ar
    15    16    17   ar
    16     2     1   ar
    17     2     3   ar
    18     1     5   ar
    19    26    28   ar
    20    26    27    1
    21    10    11    2
    22    15    20   ar
    23    17    18   ar
    24     3     8    1
    25     3     4   ar
    26     8     7    1
    27     5     4   ar
    28     4     6    1
    29     6     7    1
    30    20    19   ar
    31    18    19   ar
