@<TRIPOS>MOLECULE
ZINC21237752_replica-1.pdb
 36 40 0 0 0
SMALL
GASTEIGER

@<TRIPOS>ATOM
      1  C11        8.1490   35.2250   59.9640 C.3     0  <0>0        0.0356
      2  C12        6.9600   35.0980   60.9140 C.3     0  <0>0        0.0458
      3  C13        5.6620   35.2650   60.1440 C.2     0  <0>0        0.0262
      4  C14        5.6040   36.0710   59.0700 C.2     0  <0>0        0.0436
      5  C15        4.3840   36.3280   58.2180 C.3     0  <0>0        0.1186
      6  N1         3.1450   35.8350   58.7800 N.pl3   0  <0>0       -0.3262
      7  C16        2.9320   34.4700   58.9660 C.ar    0  <0>0        0.0586
      8  C17        1.9910   33.7770   58.2240 C.ar    0  <0>0        0.0156
      9  C18        1.8920   32.4030   58.3640 C.ar    0  <0>0        0.0013
     10  C19        2.7230   31.7260   59.2380 C.ar    0  <0>0        0.0014
     11  C20        3.6510   32.4200   59.9970 C.ar    0  <0>0        0.0158
     12  C21        3.7380   33.7960   59.8710 C.ar    0  <0>0        0.0614
     13  N2         4.6120   34.5590   60.6360 N.pl3   0  <0>0       -0.3150
     14  C28        6.7600   36.7660   58.6390 C.2     0  <0>0        0.1722
     15  O2         6.6740   37.5090   57.6810 O.2     0  <0>0       -0.2916
     16  C29        8.0860   36.6160   59.3210 C.3     0  <0>0        0.0736
     17  H18        2.3520   36.5420   59.0670 H       0  <0>0        0.1474
     18  H23        4.4060   34.5630   61.7170 H       0  <0>0        0.1520
     19  C8         9.4370   35.0750   60.7330 C.ar    0  <0>0       -0.0215
     20  C7         9.9750   33.8180   60.9390 C.ar    0  <0>0       -0.0011
     21  C6        11.1550   33.6780   61.6450 C.ar    0  <0>0        0.0366
     22  C5        11.8000   34.8010   62.1460 C.ar    0  <0>0        0.1385
     23  C10       11.2570   36.0600   61.9370 C.ar    0  <0>0        0.0366
     24  C9        10.0800   36.1950   61.2270 C.ar    0  <0>0       -0.0011
     25  O1        12.9600   34.6650   62.8400 O.3     0  <0>0       -0.4755
     26  C4        14.0520   34.0400   62.1630 C.3     0  <0>0        0.2053
     27  C2        14.7580   33.0740   63.1160 C.3     0  <0>0        0.0438
     28  C1        15.2800   33.8450   64.3300 C.3     0  <0>0        0.0038
     29  C3        13.7690   32.0010   63.5780 C.3     0  <0>0        0.0038
     30  C22        4.5930   35.6730   56.8760 C.ar    0  <0>0       -0.0001
     31  C27        3.9290   36.1520   55.7630 C.ar    0  <0>0       -0.0001
     32  C26        4.1200   35.5540   54.5320 C.ar    0  <0>0        0.0294
     33  C25        4.9770   34.4730   54.4140 C.ar    0  <0>0        0.1401
     34  C24        5.6420   33.9940   55.5300 C.ar    0  <0>0        0.0294
     35  F1         5.1640   33.8860   53.2120 F       0  <0>0       -0.2042
     36  C23        5.4540   34.5970   56.7590 C.ar    0  <0>0       -0.0001
@<TRIPOS>BOND
     1    35    33    1
     2    33    32   ar
     3    33    34   ar
     4    32    31   ar
     5    34    36   ar
     6    31    30   ar
     7    36    30   ar
     8    30     5    1
     9    15    14    2
    10     5     6    1
    11     5     4    1
    12     8     9   ar
    13     8     7   ar
    14     9    10   ar
    15    14     4    1
    16    14    16    1
    17     6     7    1
    18     6    17    1
    19     7    12   ar
    20     4     3    2
    21    10    11   ar
    22    16     1    1
    23    12    11   ar
    24    12    13    1
    25     1    19    1
    26     1     2    1
    27     3    13    1
    28     3     2    1
    29    13    18    1
    30    19    20   ar
    31    19    24   ar
    32    20    21   ar
    33    24    23   ar
    34    21    22   ar
    35    23    22   ar
    36    22    25    1
    37    26    25    1
    38    26    27    1
    39    27    29    1
    40    27    28    1
