@<TRIPOS>MOLECULE
ZINC04771914_replica-1.pdb
 16 17 0 0 0
SMALL
GASTEIGER

@<TRIPOS>ATOM
      1  C1        -1.2160   26.6050   51.1420 C.2     0  <0>0       -0.0037
      2  C2        -0.4300   25.7360   51.8960 C.2     0  <0>0        0.0020
      3  C3        -0.0620   26.0480   53.1680 C.2     0  <0>0        0.0283
      4  C4        -0.4760   27.2660   53.7360 C.2     0  <0>0        0.1198
      5  C5        -1.2740   28.1470   52.9670 C.3     0  <0>0        0.1368
      6  C6        -1.6370   27.7920   51.6590 C.2     0  <0>0       -0.0117
      7  C7        -1.6900   29.3700   53.5400 C.2     0  <0>0        0.1961
      8  C8        -1.2920   29.6470   54.8360 C.2     0  <0>0        0.1218
      9  C9        -0.5070   28.7300   55.5260 C.2     0  <0>0        0.1638
     10  N1        -0.1270   27.5980   54.9840 N.2     0  <0>0       -0.4052
     11 Cl         -1.7690   31.1330   55.5950 Cl      0  <0>0       -0.0768
     12  O1        -2.4560   30.2440   52.8400 O.2     0  <0>0       -0.2896
     13  C10       -0.0810   29.0470   56.9370 C.3     0  <0>0        0.2449
     14 Cl         -1.5360   29.1390   57.9980 Cl      0  <0>0       -0.0755
     15 Cl          1.0200   27.7510   57.5370 Cl      0  <0>0       -0.0755
     16 Cl          0.7820   30.6300   56.9630 Cl      0  <0>0       -0.0755
@<TRIPOS>BOND
     1     1     6    2
     2     1     2    1
     3     6     5    1
     4     2     3    2
     5    12     7    1
     6     5     7    1
     7     5     4    1
     8     3     4    1
     9     7     8    2
    10     4    10    2
    11     8     9    1
    12     8    11    1
    13    10     9    2
    14     9    13    1
    15    13    16    1
    16    13    15    1
    17    13    14    1
