@<TRIPOS>MOLECULE
ZINC48287569_replica-1.pdb
 32 36 0 0 0
SMALL
GASTEIGER

@<TRIPOS>ATOM
      1  C1         7.4940   34.2120   60.3420 C.3     0  <0>0        0.1158
      2  N1         7.9820   34.4830   58.9860 N.am    0  <0>0       -0.2672
      3  C14        7.4360   33.8430   57.9340 C.2     0  <0>0        0.2463
      4  O1         7.9020   33.9940   56.8220 O.2     0  <0>0       -0.2702
      5  C15        6.2690   32.9550   58.1320 C.2     0  <0>0        0.0443
      6  C19        6.4310   31.5080   58.2860 C.3     0  <0>0        0.1009
      7  C18        5.2760   30.7110   58.4800 C.2     0  <0>0        0.1169
      8  C20        7.6940   30.9080   58.2530 C.2     0  <0>0       -0.0149
      9  N3         4.0690   31.2790   58.5070 N.2     0  <0>0       -0.4051
     10  C23        5.4270   29.3200   58.6360 C.2     0  <0>0        0.0282
     11  C17        3.9000   32.5790   58.3630 C.2     0  <0>0        0.1368
     12  C16        4.9790   33.4600   58.1730 C.2     0  <0>0        0.0335
     13  C22        6.6680   28.7660   58.5860 C.2     0  <0>0        0.0020
     14  C21        7.8020   29.5560   58.4020 C.2     0  <0>0       -0.0038
     15  C24        2.5310   33.1280   58.4060 C.ar    0  <0>0        0.0590
     16  S1         1.2150   32.9630   57.2100 S.2     0  <0>0       -0.0839
     17  C27       -0.0270   33.9160   58.0690 C.ar    0  <0>0        0.0355
     18  C26        0.6350   34.3000   59.1920 C.ar    0  <0>0        0.0076
     19  C25        1.9390   33.9010   59.3720 C.ar    0  <0>0        0.0096
     20  C2         9.0640   35.4480   58.7760 C.3     0  <0>0        0.1384
     21  C3         9.9590   35.4710   59.9880 C.ar    0  <0>0        0.0014
     22  C8        10.7500   34.3770   60.2840 C.ar    0  <0>0       -0.0023
     23  C7        11.5750   34.4000   61.3920 C.ar    0  <0>0       -0.0003
     24  C6        11.6030   35.5140   62.2100 C.ar    0  <0>0       -0.0000
     25  C5        10.8080   36.6060   61.9170 C.ar    0  <0>0       -0.0003
     26  C4         9.9850   36.5850   60.8060 C.ar    0  <0>0       -0.0023
     27  C9         8.4780   36.8190   58.5580 C.ar    0  <0>0        0.0813
     28  N2         7.6520   37.3250   59.4530 N.ar    0  <0>0       -0.2462
     29  C13        7.1190   38.5230   59.3070 C.ar    0  <0>0        0.0985
     30  C12        7.4030   39.2920   58.1950 C.ar    0  <0>0        0.0207
     31  C11        8.2630   38.7920   57.2290 C.ar    0  <0>0        0.0029
     32  C10        8.8080   37.5310   57.4200 C.ar    0  <0>0        0.0167
@<TRIPOS>BOND
     1     4     3    2
     2    16    17   ar
     3    16    15   ar
     4    31    32   ar
     5    31    30   ar
     6    32    27   ar
     7     3     5    1
     8     3     2   am
     9    17    18   ar
    10     5    12    2
    11     5     6    1
    12    12    11    1
    13    30    29   ar
    14     8     6    1
    15     8    14    2
    16     6     7    1
    17    11    15    1
    18    11     9    2
    19    14    13    1
    20    15    19   ar
    21     7     9    2
    22     7    10    1
    23    27    20    1
    24    27    28   ar
    25    13    10    2
    26    20     2    1
    27    20    21    1
    28     2     1    1
    29    18    19   ar
    30    29    28   ar
    31    21    22   ar
    32    21    26   ar
    33    22    23   ar
    34    26    25   ar
    35    23    24   ar
    36    25    24   ar
