@<TRIPOS>MOLECULE
ZINC00355859_replica-1.pdb
 19 20 0 0 0
SMALL
GASTEIGER

@<TRIPOS>ATOM
      1  C8        -0.6770   29.8850   55.8860 C.3     0  <0>0        0.1313
      2  N1        -0.8040   29.8650   54.4260 N.pl3   0  <0>0       -0.3279
      3  H9        -0.9330   30.6950   53.9400 H       0  <0>0        0.1472
      4  C5        -0.7380   28.6530   53.7350 C.ar    0  <0>0        0.0449
      5  C4        -0.0620   27.5730   54.2880 C.ar    0  <0>0        0.0140
      6  C3         0.0000   26.3760   53.6010 C.ar    0  <0>0       -0.0030
      7  C2        -0.6070   26.2530   52.3650 C.ar    0  <0>0       -0.0218
      8  C1        -0.5360   24.9460   51.6190 C.3     0  <0>0        0.0310
      9  C7        -1.2790   27.3270   51.8110 C.ar    0  <0>0       -0.0030
     10  C6        -1.3520   28.5250   52.4950 C.ar    0  <0>0        0.0140
     11  C9        -2.0690   29.8230   56.5190 C.3     0  <0>0        0.0493
     12  C10       -2.1420   28.6500   57.4620 C.2     0  <0>0       -0.0418
     13  C11       -3.0520   27.7240   57.2850 C.2     0  <0>0       -0.0091
     14  C12       -1.1700   28.5430   58.6090 C.3     0  <0>0        0.0264
     15  C13        0.0150   31.1530   56.3140 C.ar    0  <0>0        0.1409
     16  O1         1.1400   31.6530   55.7780 O.2     0  <0>0       -0.4530
     17  C16        1.4690   32.7910   56.4110 C.ar    0  <0>0        0.1792
     18  C15        0.5480   33.0320   57.3590 C.ar    0  <0>0        0.0435
     19  C14       -0.3920   31.9770   57.2950 C.ar    0  <0>0        0.0379
@<TRIPOS>BOND
     1     8     7    1
     2     9     7   ar
     3     9    10   ar
     4     7     6   ar
     5    10     4   ar
     6     6     5   ar
     7     4     5   ar
     8     4     2    1
     9     3     2    1
    10     2     1    1
    11    16    15   ar
    12    16    17   ar
    13     1    15    1
    14     1    11    1
    15    15    19   ar
    16    17    18   ar
    17    11    12    1
    18    13    12    2
    19    19    18   ar
    20    12    14    1
