@<TRIPOS>MOLECULE
ZINC50342792_replica-1.pdb
 20 21 0 0 0
SMALL
GASTEIGER

@<TRIPOS>ATOM
      1  C7        -0.4630   27.6180   54.0710 C.ar    0  <0>0        0.0533
      2  C8        -0.1700   26.3440   53.6040 C.ar    0  <0>0        0.0441
      3  C9        -0.5270   25.9780   52.3200 C.ar    0  <0>0        0.1414
      4  C10       -1.1800   26.8800   51.4880 C.ar    0  <0>0        0.0299
      5  C11       -1.4780   28.1460   51.9350 C.ar    0  <0>0        0.0100
      6  C12       -1.1280   28.5290   53.2340 C.ar    0  <0>0        0.0889
      7  F1        -0.2390   24.7370   51.8700 F       0  <0>0       -0.2041
      8  N1        -0.1060   27.9880   55.3610 N.pl3   0  <0>0       -0.3304
      9  H8         0.6030   28.6350   55.5010 H       0  <0>0        0.1471
     10  C2        -0.8020   27.4020   56.5100 C.3     0  <0>0        0.0924
     11  C1        -2.0370   28.2430   56.8400 C.3     0  <0>0        0.0261
     12  C3         0.1240   27.3800   57.6990 C.ar    0  <0>0        0.0024
     13  C6         0.9790   28.4070   57.9240 C.ar    0  <0>0        0.0328
     14  S1         1.8060   27.8780   59.4150 S.2     0  <0>0       -0.0862
     15  C5         0.9630   26.3200   59.6330 C.ar    0  <0>0        0.0352
     16  C4         0.1180   26.3090   58.5720 C.ar    0  <0>0        0.0048
     17  C13       -1.4500   29.8810   53.7190 C.2     0  <0>0        0.3425
     18  O1        -2.6010   30.2710   53.7150 O.2     0  <0>0       -0.2448
     19  O2        -0.4670   30.6880   54.1670 O.3     0  <0>0       -0.4413
     20  C14       -0.7370   31.4420   55.3500 C.3     0  <0>0        0.2560
@<TRIPOS>BOND
     1     4     5   ar
     2     4     3   ar
     3     7     3    1
     4     5     6   ar
     5     3     2   ar
     6     6    17    1
     7     6     1   ar
     8     2     1   ar
     9    18    17    2
    10    17    19    1
    11     1     8    1
    12    19    20    1
    13     8     9    1
    14     8    10    1
    15    10    11    1
    16    10    12    1
    17    12    13   ar
    18    12    16   ar
    19    13    14   ar
    20    16    15   ar
    21    14    15   ar
