@<TRIPOS>MOLECULE
ZINC36931984_replica-1.pdb
 20 20 0 0 0
SMALL
GASTEIGER

@<TRIPOS>ATOM
      1  C9        10.3490   35.2670   60.7130 C.ar    0  <0>0        0.0641
      2  C10        9.9120   36.5640   60.9720 C.ar    0  <0>0        0.0188
      3  C11        9.2350   37.2410   59.9710 C.ar    0  <0>0        0.0392
      4  C12        9.0180   36.6140   58.7580 C.ar    0  <0>0        0.1863
      5  N2         9.4450   35.3850   58.5440 N.ar    0  <0>0       -0.2244
      6  C13       10.0980   34.7070   59.4670 C.ar    0  <0>0        0.1146
      7  N1        11.0360   34.5420   61.6900 N.pl3   0  <0>0       -0.3328
      8  H18       10.6620   33.7150   62.0320 H       0  <0>0        0.1468
      9  C6        12.3210   35.0300   62.1980 C.3     0  <0>0        0.0691
     10  C5        13.4010   33.9770   61.9480 C.3     0  <0>0        0.0195
     11  C3        13.9440   33.4750   63.2870 C.3     0  <0>0        0.0016
     12  C4        13.7560   31.9590   63.3780 C.3     0  <0>0        0.0001
     13  C2        15.4340   33.8110   63.3910 C.3     0  <0>0        0.0001
     14  C1        15.8190   33.9690   64.8640 C.3     0  <0>0        0.0000
     15  C7        12.2060   35.2990   63.7000 C.3     0  <0>0        0.0195
     16  C8        11.9430   36.7880   63.9330 C.3     0  <0>0        0.0017
     17  S1         8.1570   37.4700   57.4810 S.O2    0  <0>0        0.0268
     18  O1         6.8080   37.5200   57.9240 O.2     0  <0>0       -0.1671
     19  O2         8.8980   38.6650   57.2800 O.2     0  <0>0       -0.1671
     20  C14        8.2960   36.3960   56.0250 C.3     0  <0>0        0.1834
@<TRIPOS>BOND
     1    20    17    1
     2    19    17    2
     3    17    18    2
     4    17     4    1
     5     5     4   ar
     6     5     6   ar
     7     4     3   ar
     8     6     1   ar
     9     3     2   ar
    10     1     2   ar
    11     1     7    1
    12     7     8    1
    13     7     9    1
    14    10     9    1
    15    10    11    1
    16     9    15    1
    17    11    12    1
    18    11    13    1
    19    13    14    1
    20    15    16    1
