@<TRIPOS>MOLECULE
ZINC20524304_replica-1.pdb
 19 19 0 0 0
SMALL
GASTEIGER

@<TRIPOS>ATOM
      1  N1         8.3080   35.5470   56.9910 N.4     0  <0>0        0.3865
      2  H16        9.2440   35.1730   56.5490 H       0  <0>0       -0.0843
      3  H32        8.0270   36.4940   56.5090 H       0  <0>0       -0.0843
      4  C2         7.2410   34.5590   56.7850 C.3     0  <0>0       -0.0596
      5  C1         7.8580   33.1710   56.5990 C.3     0  <0>0       -0.0234
      6  C3         6.3150   34.5460   58.0030 C.3     0  <0>0        0.0059
      7  C4         5.0040   35.2540   57.6560 C.3     0  <0>0        0.0910
      8  C5         3.9670   34.2180   57.2170 C.3     0  <0>0        0.0296
      9  C6         4.4880   36.0030   58.8870 C.3     0  <0>0        0.0296
     10  O1         5.2310   36.1820   56.5940 O.3     0  <0>0       -0.3559
     11  C7         4.1450   36.2850   55.6710 C.3     0  <0>0        0.1739
     12  C8         8.5280   35.7930   58.4220 C.3     0  <0>0       -0.0618
     13  C15        9.8270   35.1140   58.8620 C.3     0  <0>0       -0.0214
     14  C14        9.8620   35.0240   60.3890 C.3     0  <0>0       -0.0021
     15  C13       10.1920   36.3980   60.9750 C.3     0  <0>0       -0.0001
     16  C12        8.9780   36.9350   61.7360 C.3     0  <0>0       -0.0000
     17  C11        7.7120   36.6900   60.9120 C.3     0  <0>0       -0.0001
     18  C10        7.6450   37.7050   59.7680 C.3     0  <0>0       -0.0021
     19  C9         8.6300   37.3000   58.6700 C.3     0  <0>0       -0.0214
@<TRIPOS>BOND
     1    11    10    1
     2     3     1    1
     3     2     1    1
     4    10     7    1
     5     5     4    1
     6     4     1    1
     7     4     6    1
     8     1    12    1
     9     8     7    1
    10     7     6    1
    11     7     9    1
    12    12    19    1
    13    12    13    1
    14    19    18    1
    15    13    14    1
    16    18    17    1
    17    14    15    1
    18    17    16    1
    19    15    16    1
