@<TRIPOS>MOLECULE
ZINC34787740_replica-1.pdb
 28 32 0 0 0
SMALL
GASTEIGER

@<TRIPOS>ATOM
      1  C1         5.0060   34.9640   60.1490 C.3     0  <0>0        0.0540
      2  C2         3.8390   34.4230   59.3630 C.ar    0  <0>0        0.0813
      3  C3         3.1820   35.0810   58.3160 C.ar    0  <0>0        0.0321
      4  C4         2.1940   34.2720   57.8710 C.ar    0  <0>0        0.0745
      5  N1         2.2260   33.1350   58.6150 N.ar    0  <0>0       -0.1559
      6  N2         3.2710   33.2590   59.5390 N.ar    0  <0>0       -0.1593
      7  C5         1.3710   32.0410   58.4800 C.1     0  <0>0        0.2366
      8  N3         1.5200   30.9990   59.2860 N.2     0  <0>0       -0.3219
      9  C6         0.7230   29.9550   59.1730 C.2     0  <0>0        0.1625
     10  C7        -0.2990   29.9090   58.2080 C.3     0  <0>0        0.1374
     11  C8        -1.1160   28.6840   58.1920 C.2     0  <0>0       -0.0282
     12  C9        -0.8100   27.7390   59.0950 C.2     0  <0>0        0.0023
     13  S1         0.5650   28.4000   60.0090 S.3     0  <0>0       -0.0631
     14  C10       -1.7120   26.5380   58.9890 C.3     0  <0>0        0.0327
     15  C11       -2.9210   27.0330   58.1650 C.3     0  <0>0        0.0096
     16  C12       -2.2960   28.1840   57.3530 C.3     0  <0>0        0.0234
     17  C13       -0.4100   31.0550   57.3720 C.2     0  <0>0        0.1591
     18  N4         0.4260   32.0660   57.5520 N.2     0  <0>0       -0.3222
     19  C21        1.2320   34.5770   56.7510 C.3     0  <0>0        0.0531
     20  S2        -1.6470   31.1300   56.1180 S.3     0  <0>0       -0.0803
     21  C14       -0.7030   31.1130   54.5690 C.3     0  <0>0        0.0906
     22  C15       -0.6270   29.7030   54.0440 C.ar    0  <0>0       -0.0109
     23  C20        0.2940   28.8180   54.5710 C.ar    0  <0>0       -0.0025
     24  C19        0.3610   27.5220   54.0930 C.ar    0  <0>0        0.0111
     25  C18       -0.4880   27.1150   53.0790 C.ar    0  <0>0        0.0577
     26  C17       -1.4070   28.0020   52.5490 C.ar    0  <0>0        0.0111
     27 Cl         -0.4000   25.4900   52.4750 Cl      0  <0>0       -0.0822
     28  C16       -1.4760   29.2960   53.0310 C.ar    0  <0>0       -0.0025
@<TRIPOS>BOND
     1    27    25    1
     2    26    28   ar
     3    26    25   ar
     4    28    22   ar
     5    25    24   ar
     6    22    21    1
     7    22    23   ar
     8    24    23   ar
     9    21    20    1
    10    20    17    1
    11    19     4    1
    12    16    15    1
    13    16    11    1
    14    17    18    2
    15    17    10    1
    16    18     7    2
    17     4     3   ar
    18     4     5   ar
    19    15    14    1
    20    11    10    1
    21    11    12    2
    22    10     9    1
    23     3     2   ar
    24     7     5    1
    25     7     8    2
    26     5     6   ar
    27    14    12    1
    28    12    13    1
    29     9     8    2
    30     9    13    1
    31     2     6   ar
    32     2     1    1
