@<TRIPOS>MOLECULE
ZINC49561043_replica-1.pdb
 22 22 0 0 0
SMALL
GASTEIGER

@<TRIPOS>ATOM
      1  N1         7.3240   35.9880   58.4300 N.am    0  <0>0       -0.2861
      2  C9         6.8470   35.3200   57.3600 C.2     0  <0>0        0.3041
      3  O1         7.4760   35.3100   56.3200 O.2     0  <0>0       -0.2526
      4  N2         5.6740   34.6630   57.4450 N.am    0  <0>0       -0.2653
      5  H12        6.7930   36.0500   59.2390 H       0  <0>0        0.1512
      6  C4         8.6440   36.6200   58.3690 C.3     0  <0>0        0.1014
      7  C2         8.4930   38.1340   58.5180 C.3     0  <0>0        0.0228
      8  C1         8.5130   38.7870   57.1340 C.3     0  <0>0        0.0021
      9  C3         7.1650   38.4480   59.2110 C.3     0  <0>0        0.0021
     10  C5         9.5060   36.0890   59.4860 C.ar    0  <0>0        0.0251
     11  S1         9.8840   36.8310   61.0650 S.2     0  <0>0       -0.0892
     12  C8        10.9340   35.5380   61.7060 C.ar    0  <0>0        0.0352
     13  C7        10.9330   34.6450   60.6870 C.ar    0  <0>0        0.0072
     14  C6        10.2010   34.9260   59.5480 C.ar    0  <0>0        0.0043
     15  C10        4.8630   34.7640   58.6610 C.3     0  <0>0        0.1067
     16  C11        3.9740   36.0050   58.5800 C.3     0  <0>0        0.1355
     17  C12        2.5270   35.5850   58.5290 C.2     0  <0>0        0.3666
     18  O2         2.0920   34.7970   59.3530 O.co2   0  <0>0       -0.2456
     19  O3         1.7910   36.0310   57.6660 O.co2   0  <0>0       -0.2456
     20  C13        5.2070   33.8490   56.3190 C.3     0  <0>0        0.0769
     21  C14        4.3760   32.6770   56.8470 C.3     0  <0>0        0.0216
     22  C15        4.3450   34.7070   55.3910 C.3     0  <0>0        0.0216
@<TRIPOS>BOND
     1    22    20    1
     2    20    21    1
     3    20     4    1
     4     3     2    2
     5     8     7    1
     6     2     4   am
     7     2     1   am
     8     4    15    1
     9    19    17   ar
    10     6     1    1
    11     6     7    1
    12     6    10    1
    13     1     5    1
    14     7     9    1
    15    17    16    1
    16    17    18   ar
    17    16    15    1
    18    10    14   ar
    19    10    11   ar
    20    14    13   ar
    21    13    12   ar
    22    11    12   ar
