@<TRIPOS>MOLECULE
ZINC27530289_replica-1.pdb
 30 32 0 0 0
SMALL
GASTEIGER

@<TRIPOS>ATOM
      1  C12        6.6820   34.1600   58.0350 C.3     0  <0>0        0.0732
      2  N1         7.9530   34.2020   58.7620 N.am    0  <0>0       -0.3026
      3  C11        8.0610   33.6060   59.9650 C.2     0  <0>0        0.2458
      4  O1         7.1040   33.0330   60.4480 O.2     0  <0>0       -0.2701
      5  H15        8.8190   34.7200   58.3240 H       0  <0>0        0.1497
      6  C8         9.3440   33.6490   60.7000 C.ar    0  <0>0        0.0533
      7  C7         9.7520   32.5540   61.4630 C.ar    0  <0>0        0.0042
      8  C6        10.9500   32.6020   62.1440 C.ar    0  <0>0       -0.0041
      9  C5        11.7470   33.7310   62.0730 C.ar    0  <0>0       -0.0228
     10  C10       11.3480   34.8190   61.3180 C.ar    0  <0>0       -0.0041
     11  C9        10.1520   34.7850   60.6320 C.ar    0  <0>0        0.0042
     12  C2        13.0540   33.7750   62.8210 C.3     0  <0>0        0.0189
     13  C1        14.1720   34.2060   61.8690 C.3     0  <0>0        0.0044
     14  C3        12.9490   34.7790   63.9710 C.3     0  <0>0        0.0044
     15  C4        13.3680   32.3870   63.3820 C.3     0  <0>0        0.0044
     16  C13        5.9410   35.4850   58.2240 C.3     0  <0>0       -0.0147
     17  C14        4.4980   35.2110   58.5570 C.ar    0  <0>0       -0.0397
     18  C19        4.1600   34.0900   59.2940 C.ar    0  <0>0       -0.0031
     19  C18        2.8370   33.8370   59.6010 C.ar    0  <0>0        0.0365
     20  C17        1.8470   34.7080   59.1710 C.ar    0  <0>0        0.1387
     21  C16        2.1890   35.8320   58.4320 C.ar    0  <0>0        0.0365
     22  C15        3.5130   36.0840   58.1320 C.ar    0  <0>0       -0.0031
     23  O2         0.5450   34.4620   59.4730 O.3     0  <0>0       -0.4714
     24  C20        0.2330   34.2150   60.8450 C.3     0  <0>0        0.2525
     25  N2         6.0170   36.2680   56.9830 N.4     0  <0>0        0.3919
     26  C24        6.5250   35.4420   55.8660 C.3     0  <0>0       -0.0768
     27  C23        7.3610   36.3690   54.9630 C.3     0  <0>0       -0.0249
     28  C22        7.3200   37.7500   55.6540 C.3     0  <0>0       -0.0249
     29  C21        6.9770   37.3940   57.1230 C.3     0  <0>0       -0.0768
     30  H33        4.9940   36.6240   56.7900 H       0  <0>0       -0.0791
@<TRIPOS>BOND
     1    27    28    1
     2    27    26    1
     3    28    29    1
     4    26    25    1
     5    30    25    1
     6    25    29    1
     7    25    16    1
     8     1    16    1
     9     1     2    1
    10    22    21   ar
    11    22    17   ar
    12    16    17    1
    13     5     2    1
    14    21    20   ar
    15    17    18   ar
    16     2     3   am
    17    20    23    1
    18    20    19   ar
    19    18    19   ar
    20    23    24    1
    21     3     4    2
    22     3     6    1
    23    11     6   ar
    24    11    10   ar
    25     6     7   ar
    26    10     9   ar
    27     7     8   ar
    28    13    12    1
    29     9     8   ar
    30     9    12    1
    31    12    15    1
    32    12    14    1
