@<TRIPOS>MOLECULE
ZINC50893454_replica-1.pdb
 21 22 0 0 0
SMALL
GASTEIGER

@<TRIPOS>ATOM
      1  C9         7.8690   36.2720   59.7490 C.3     0  <0>0       -0.0433
      2  C10        8.5780   36.5020   58.4120 C.3     0  <0>0       -0.0195
      3  C11        7.5680   37.0090   57.3800 C.3     0  <0>0       -0.0019
      4  C12        6.4590   35.9720   57.1990 C.3     0  <0>0        0.0012
      5  C13        5.7510   35.7410   58.5350 C.3     0  <0>0        0.0136
      6  C14        6.7610   35.2340   59.5660 C.3     0  <0>0        0.0350
      7  N1         8.8390   35.7840   60.7380 N.4     0  <0>0        0.3891
      8  C6         9.8500   36.8210   60.9840 C.3     0  <0>0       -0.0772
      9  C5        10.8150   36.3500   62.0720 C.3     0  <0>0       -0.0229
     10  C4        11.5040   35.0610   61.6140 C.3     0  <0>0       -0.0042
     11  C8        10.4380   34.0110   61.2910 C.3     0  <0>0       -0.0229
     12  C7         9.4850   34.5690   60.2300 C.3     0  <0>0       -0.0772
     13  H35        8.3600   35.5740   61.6010 H       0  <0>0       -0.0796
     14  C3        12.4120   34.5420   62.7320 C.3     0  <0>0       -0.0001
     15  C2        13.7440   34.0850   62.1350 C.3     0  <0>0       -0.0000
     16  C1        14.3910   33.0530   63.0620 C.3     0  <0>0       -0.0000
     17  N2         6.0810   35.0130   60.8500 N.3     0  <0>0       -0.2992
     18  C15        5.5050   33.6630   60.9150 C.3     0  <0>0        0.0858
     19  H26        6.7080   35.1770   61.6230 H       0  <0>0        0.1232
     20  C16        8.2750   37.2400   56.0440 C.3     0  <0>0       -0.0001
     21  C17        7.5610   36.4510   54.9460 C.3     0  <0>0       -0.0000
@<TRIPOS>BOND
     1    21    20    1
     2    20     3    1
     3     4     3    1
     4     4     5    1
     5     3     2    1
     6     2     1    1
     7     5     6    1
     8     6     1    1
     9     6    17    1
    10     1     7    1
    11    12     7    1
    12    12    11    1
    13     7     8    1
    14     7    13    1
    15    17    18    1
    16    17    19    1
    17     8     9    1
    18    11    10    1
    19    10     9    1
    20    10    14    1
    21    15    14    1
    22    15    16    1
