@<TRIPOS>MOLECULE
ZINC66368286_replica-1.pdb
 22 22 0 0 0
SMALL
GASTEIGER

@<TRIPOS>ATOM
      1  N1         4.6120   35.3800   59.5380 N.am    0  <0>0       -0.2906
      2  C7         5.7280   35.3400   58.7820 C.2     0  <0>0        0.3007
      3  O1         5.6970   34.8360   57.6770 O.2     0  <0>0       -0.2528
      4  N2         6.8790   35.8610   59.2530 N.am    0  <0>0       -0.2903
      5  H16        4.6370   35.7830   60.4190 H       0  <0>0        0.1509
      6  H17        6.9040   36.2640   60.1360 H       0  <0>0        0.1509
      7  C8         8.0920   35.8190   58.4340 C.3     0  <0>0        0.0812
      8  C13        8.8390   37.1480   58.5590 C.3     0  <0>0        0.1130
      9  C12        9.2200   37.3830   60.0210 C.3     0  <0>0        0.0102
     10  C11       10.1220   36.2430   60.5020 C.3     0  <0>0        0.0004
     11  C10        9.3750   34.9140   60.3770 C.3     0  <0>0        0.0017
     12  C9         8.9930   34.6800   58.9140 C.3     0  <0>0        0.0199
     13  C14        7.9380   38.2870   58.0780 C.3     0  <0>0        0.3990
     14  F1         7.0860   37.8150   57.0740 F       0  <0>0       -0.1700
     15  F2         7.1770   38.7640   59.1500 F       0  <0>0       -0.1700
     16  F3         8.7290   39.3240   57.5700 F       0  <0>0       -0.1700
     17  C3         3.3620   34.8140   59.0250 C.3     0  <0>0        0.0730
     18  C2         2.4210   35.9470   58.6100 C.3     0  <0>0        0.0196
     19  C1         2.4270   36.0810   57.0860 C.3     0  <0>0        0.0017
     20  C4         2.6970   33.9740   60.1180 C.3     0  <0>0        0.0180
     21  C5         1.1880   34.2280   60.1090 C.3     0  <0>0        0.0017
     22  C6         2.9670   32.4910   59.8570 C.3     0  <0>0        0.0017
@<TRIPOS>BOND
     1    14    13    1
     2    19    18    1
     3    16    13    1
     4     3     2    2
     5    13     8    1
     6    13    15    1
     7     7     8    1
     8     7    12    1
     9     7     4    1
    10     8     9    1
    11    18    17    1
    12     2     4   am
    13     2     1   am
    14    12    11    1
    15    17     1    1
    16    17    20    1
    17     4     6    1
    18     1     5    1
    19    22    20    1
    20     9    10    1
    21    21    20    1
    22    11    10    1
