@<TRIPOS>MOLECULE
ZINC02597718_replica-1.pdb
 31 33 0 0 0
SMALL
GASTEIGER

@<TRIPOS>ATOM
      1  C9         5.6030   35.9360   57.2900 C.ar    0  <0>0        0.1487
      2  C10        5.2550   35.6990   58.6140 C.ar    0  <0>0        0.0373
      3  C11        3.9280   35.5930   58.9710 C.ar    0  <0>0        0.0003
      4  C12        2.9320   35.7370   58.0020 C.ar    0  <0>0       -0.0027
      5  C13        3.2860   35.9820   56.6730 C.ar    0  <0>0        0.0003
      6  C14        4.6150   36.0790   56.3230 C.ar    0  <0>0        0.0373
      7  C15        1.5110   35.6300   58.3810 C.3     0  <0>0        0.1377
      8  N1         0.9880   34.4660   58.6170 N.3     0  <0>0       -0.1274
      9  N2        -0.1000   34.0190   57.8570 N.am    0  <0>0       -0.2437
     10  H13       -0.9350   34.5140   57.8670 H       0  <0>0        0.1696
     11  C16        0.0110   32.9020   57.1120 C.2     0  <0>0        0.1497
     12  S1         1.5580   32.3190   56.6670 S.2     0  <0>0       -0.0173
     13  N3        -1.0970   32.2440   56.7160 N.am    0  <0>0       -0.2949
     14  H14       -1.9740   32.6180   56.8960 H       0  <0>0        0.1539
     15  C17       -0.9820   31.0210   56.0450 C.ar    0  <0>0        0.0497
     16  C22       -1.1430   29.8290   56.7380 C.ar    0  <0>0        0.0170
     17  C21       -1.0280   28.6240   56.0740 C.ar    0  <0>0        0.0309
     18  C20       -0.7530   28.6030   54.7170 C.ar    0  <0>0        0.1402
     19  C19       -0.5910   29.7900   54.0230 C.ar    0  <0>0        0.0309
     20  F1        -0.6420   27.4230   54.0690 F       0  <0>0       -0.2042
     21  C18       -0.7120   30.9990   54.6820 C.ar    0  <0>0        0.0170
     22  O2         6.9110   36.0340   56.9410 O.3     0  <0>0       -0.4210
     23  C8         7.6430   36.9760   57.5660 C.2     0  <0>0        0.3457
     24  O1         7.5280   38.1430   57.2500 O.2     0  <0>0       -0.2445
     25  C5         8.5850   36.5910   58.6360 C.ar    0  <0>0        0.0760
     26  C4         8.7980   37.4420   59.7240 C.ar    0  <0>0        0.0061
     27  C3         9.6790   37.0750   60.7200 C.ar    0  <0>0       -0.0040
     28  C2        10.3510   35.8690   60.6440 C.ar    0  <0>0       -0.0218
     29  C1        11.3120   35.4750   61.7370 C.3     0  <0>0        0.0310
     30  C7        10.1460   35.0220   59.5700 C.ar    0  <0>0       -0.0040
     31  C6         9.2640   35.3720   58.5690 C.ar    0  <0>0        0.0061
@<TRIPOS>BOND
     1    19    21   ar
     2    19    18   ar
     3    20    18    1
     4    21    15   ar
     5    18    17   ar
     6    15    13    1
     7    15    16   ar
     8    17    16   ar
     9     6     5   ar
    10     6     1   ar
    11    12    11    2
    12     5     4   ar
    13    13    14    1
    14    13    11    1
    15    22     1    1
    16    22    23    1
    17    11     9    1
    18    24    23    2
    19     1     2   ar
    20    23    25    1
    21     9    10    1
    22     9     8    1
    23     4     7    1
    24     4     3   ar
    25     7     8    1
    26    31    25   ar
    27    31    30   ar
    28     2     3   ar
    29    25    26   ar
    30    30    28   ar
    31    26    27   ar
    32    28    27   ar
    33    28    29    1
