@<TRIPOS>MOLECULE
ZINC62490731_replica-1.pdb
 22 24 0 0 0
SMALL
GASTEIGER

@<TRIPOS>ATOM
      1  C8        11.2130   34.5990   61.4500 C.2     0  <0>0        0.1574
      2  N1        10.4910   34.2660   60.3940 N.2     0  <0>0       -0.3986
      3  C9         9.6070   35.0910   59.8780 C.2     0  <0>0        0.1306
      4  C10        9.4840   36.3350   60.5170 C.3     0  <0>0        0.2089
      5  S1        10.6890   36.1530   61.8240 S.3     0  <0>0       -0.0646
      6  C6        12.2380   33.7910   62.1430 C.ar    0  <0>0        0.0353
      7  C5        13.5550   34.2470   62.2210 C.ar    0  <0>0        0.0030
      8  C4        14.5070   33.4870   62.8710 C.ar    0  <0>0       -0.0002
      9  C3        14.1580   32.2780   63.4440 C.ar    0  <0>0       -0.0043
     10  C2        12.8540   31.8200   63.3710 C.ar    0  <0>0       -0.0218
     11  C1        12.4840   30.5020   63.9990 C.3     0  <0>0        0.0310
     12  C7        11.8940   32.5670   62.7200 C.ar    0  <0>0       -0.0012
     13  C11        8.6400   37.4270   60.2140 C.2     0  <0>0        0.3814
     14  O1         7.4880   37.4450   60.6340 O.co2   0  <0>0       -0.2442
     15  O2         9.0590   38.3550   59.5310 O.co2   0  <0>0       -0.2442
     16  C12        8.7920   34.7300   58.6950 C.ar    0  <0>0        0.0270
     17  C17        7.8170   33.7380   58.7950 C.ar    0  <0>0        0.0046
     18  C16        7.0560   33.4090   57.6920 C.ar    0  <0>0        0.0297
     19  C15        7.2680   34.0540   56.4840 C.ar    0  <0>0        0.1401
     20  C14        8.2400   35.0370   56.3800 C.ar    0  <0>0        0.0297
     21  F1         6.5250   33.7260   55.4050 F       0  <0>0       -0.2042
     22  C13        9.0010   35.3770   57.4780 C.ar    0  <0>0        0.0046
@<TRIPOS>BOND
     1    21    19    1
     2    20    19   ar
     3    20    22   ar
     4    19    18   ar
     5    22    16   ar
     6    18    17   ar
     7    16    17   ar
     8    16     3    1
     9    15    13   ar
    10     3     2    2
    11     3     4    1
    12    13     4    1
    13    13    14   ar
    14     2     1    2
    15     4     5    1
    16     1     5    1
    17     1     6    1
    18     6     7   ar
    19     6    12   ar
    20     7     8   ar
    21    12    10   ar
    22     8     9   ar
    23    10     9   ar
    24    10    11    1
