@<TRIPOS>MOLECULE
ZINC03474616_replica-1.pdb
 26 27 0 0 0
SMALL
GASTEIGER

@<TRIPOS>ATOM
      1  C9        -0.4300   27.8870   54.6870 C.2     0  <0>0        0.0620
      2  C10        0.1830   26.8380   55.3610 C.2     0  <0>0        0.0065
      3  C11        0.3520   25.6140   54.7190 C.2     0  <0>0        0.1045
      4  N2        -0.0540   25.4150   53.4890 N.2     0  <0>0       -0.4102
      5  C12       -0.6500   26.3770   52.7800 C.2     0  <0>0        0.1165
      6  C13       -0.8620   27.6530   53.3560 C.3     0  <0>0        0.1025
      7  C14       -1.4880   28.6590   52.6070 C.2     0  <0>0       -0.0148
      8  C15       -1.8880   28.3980   51.3300 C.2     0  <0>0       -0.0038
      9  C16       -1.6820   27.1420   50.7600 C.2     0  <0>0        0.0020
     10  C17       -1.0780   26.1440   51.4600 C.2     0  <0>0        0.0282
     11  C20        0.6630   27.0230   56.7780 C.3     0  <0>0        0.0333
     12  C8        -0.6250   29.2010   55.3350 C.2     0  <0>0        0.3381
     13  O3        -1.6300   29.4140   55.9830 O.2     0  <0>0       -0.2452
     14  O2         0.3120   30.1600   55.2080 O.3     0  <0>0       -0.4355
     15  C7        -0.1410   31.5370   55.2850 C.3     0  <0>0        0.2927
     16  C6         0.7810   32.3190   56.1840 C.2     0  <0>0        0.2671
     17  N1         1.9990   32.6920   55.7410 N.am    0  <0>0       -0.3029
     18  H12        2.2810   32.4560   54.8440 H       0  <0>0        0.1495
     19  O1         0.4290   32.6140   57.3060 O.2     0  <0>0       -0.2711
     20  C4         2.8950   33.4530   56.6150 C.3     0  <0>0        0.0717
     21  C5         4.2700   32.7810   56.6450 C.3     0  <0>0        0.0213
     22  C3         3.0350   34.8800   56.0830 C.3     0  <0>0        0.0196
     23  C2         2.0650   35.7990   56.8270 C.3     0  <0>0        0.0017
     24  C1         2.3910   35.7830   58.3220 C.3     0  <0>0        0.0001
     25  C18        1.0190   24.4830   55.4610 C.3     0  <0>0        0.0586
     26  C19        0.5280   23.1470   54.9020 C.3     0  <0>0        0.0078
@<TRIPOS>BOND
     1     9     8    1
     2     9    10    2
     3     8     7    2
     4    10     5    1
     5     7     6    1
     6     5     6    1
     7     5     4    2
     8     6     1    1
     9     4     3    2
    10     1    12    1
    11     1     2    2
    12     3     2    1
    13     3    25    1
    14    18    17    1
    15    26    25    1
    16    14    15    1
    17    14    12    1
    18    15    16    1
    19    12    13    2
    20     2    11    1
    21    17    16   am
    22    17    20    1
    23    22    20    1
    24    22    23    1
    25    16    19    2
    26    20    21    1
    27    23    24    1
