@<TRIPOS>MOLECULE
ZINC30882260_replica-1.pdb
 27 28 0 0 0
SMALL
GASTEIGER

@<TRIPOS>ATOM
      1  C1         6.8530   32.7820   59.5640 C.3     0  <0>0        0.0260
      2  C2         7.2400   34.2140   59.2930 C.2     0  <0>0       -0.0479
      3  C3         8.0560   34.7890   60.1170 C.2     0  <0>0       -0.0332
      4  C4         8.5270   36.2060   59.9810 C.3     0  <0>0        0.0410
      5  C5         8.2700   36.7140   58.5610 C.3     0  <0>0        0.0060
      6  C6         6.8150   36.4000   58.1900 C.3     0  <0>0        0.0050
      7  C7         6.6610   34.8810   58.0810 C.3     0  <0>0        0.0293
      8  C13       10.0270   36.2720   60.2790 C.3     0  <0>0        0.0939
      9  N1        10.4780   34.9800   60.8020 N.am    0  <0>0       -0.3005
     10  C14       11.3520   34.9370   61.8270 C.2     0  <0>0        0.2459
     11  O3        11.7650   35.9690   62.3180 O.2     0  <0>0       -0.2701
     12  H21       10.1050   34.0470   60.3580 H       0  <0>0        0.1497
     13  C15       11.8080   33.6360   62.3530 C.ar    0  <0>0        0.0536
     14  C20       13.1480   33.4510   62.7030 C.ar    0  <0>0        0.0076
     15  C19       13.5690   32.2350   63.1940 C.ar    0  <0>0        0.0370
     16  C18       12.6630   31.1920   63.3410 C.ar    0  <0>0        0.1387
     17  C17       11.3290   31.3700   62.9940 C.ar    0  <0>0        0.0370
     18  C16       10.8990   32.5860   62.5080 C.ar    0  <0>0        0.0076
     19  O4        13.0820   29.9950   63.8250 O.3     0  <0>0       -0.4714
     20  C21       13.0050   29.8050   65.2390 C.3     0  <0>0        0.2525
     21  C10        8.5000   38.2260   58.5050 C.3     0  <0>0        0.0004
     22  C11        8.6550   38.6640   57.0480 C.3     0  <0>0        0.0000
     23  C12        7.3030   38.9470   59.1300 C.3     0  <0>0        0.0000
     24  C8         7.3930   34.3860   56.8310 C.3     0  <0>0        0.1180
     25  C9         6.7300   34.9540   55.6020 C.2     0  <0>0        0.3652
     26  O1         7.2780   35.8260   54.9690 O.co2   0  <0>0       -0.2456
     27  O2         5.5320   34.4950   55.2110 O.co2   0  <0>0       -0.2456
@<TRIPOS>BOND
     1    26    25   ar
     2    27    25   ar
     3    25    24    1
     4    24     7    1
     5    22    21    1
     6     7     6    1
     7     7     2    1
     8     6     5    1
     9    21     5    1
    10    21    23    1
    11     5     4    1
    12     2     1    1
    13     2     3    2
    14     4     3    1
    15     4     8    1
    16     8     9    1
    17    12     9    1
    18     9    10   am
    19    10    11    2
    20    10    13    1
    21    13    18   ar
    22    13    14   ar
    23    18    17   ar
    24    14    15   ar
    25    17    16   ar
    26    15    16   ar
    27    16    19    1
    28    19    20    1
