@<TRIPOS>MOLECULE
ZINC05501026_replica-1.pdb
 20 20 0 0 0
SMALL
GASTEIGER

@<TRIPOS>ATOM
      1  C6        10.6090   34.9540   60.9290 C.ar    0  <0>0        0.0447
      2  C7        10.1480   34.7090   59.6420 C.ar    0  <0>0        0.0156
      3  C8         9.4700   35.6940   58.9520 C.ar    0  <0>0        0.0156
      4  C9         9.2570   36.9330   59.5410 C.ar    0  <0>0        0.0447
      5  C10        9.7210   37.1800   60.8260 C.ar    0  <0>0        0.0156
      6  C11       10.3960   36.1930   61.5180 C.ar    0  <0>0        0.0156
      7  N1        11.2910   33.9530   61.6310 N.pl3   0  <0>0       -0.3326
      8  H12       11.1110   33.0190   61.4410 H       0  <0>0        0.1468
      9  C5        12.2820   34.3160   62.6480 C.3     0  <0>0        0.0870
     10  C4        13.6890   34.1590   62.0670 C.3     0  <0>0        0.0212
     11  C2        14.4720   33.1410   62.8980 C.3     0  <0>0        0.0017
     12  C1        15.0710   33.8360   64.1230 C.3     0  <0>0        0.0001
     13  C3        13.5310   32.0240   63.3550 C.3     0  <0>0        0.0001
     14  N2         8.5730   37.9330   58.8390 N.pl3   0  <0>0       -0.3326
     15  H17        7.9550   38.5160   59.3070 H       0  <0>0        0.1468
     16  C12        8.7900   38.0980   57.4000 C.3     0  <0>0        0.0870
     17  C13        7.4600   38.4200   56.7170 C.3     0  <0>0        0.0212
     18  C14        6.9750   37.1950   55.9390 C.3     0  <0>0        0.0017
     19  C15        8.1800   36.3630   55.4960 C.3     0  <0>0        0.0001
     20  C16        6.0710   36.3460   56.8360 C.3     0  <0>0        0.0001
@<TRIPOS>BOND
     1    19    18    1
     2    18    17    1
     3    18    20    1
     4    17    16    1
     5    16    14    1
     6    14    15    1
     7    14     4    1
     8     3     4   ar
     9     3     2   ar
    10     4     5   ar
    11     2     1   ar
    12     5     6   ar
    13     1     6   ar
    14     1     7    1
    15     8     7    1
    16     7     9    1
    17    10     9    1
    18    10    11    1
    19    11    13    1
    20    11    12    1
