@<TRIPOS>MOLECULE
ZINC42780905_replica-1.pdb
 23 23 0 0 0
SMALL
GASTEIGER

@<TRIPOS>ATOM
      1  C5        11.7920   34.1970   62.2440 C.ar    0  <0>0        0.0480
      2  C6        11.9020   35.5480   62.5650 C.ar    0  <0>0        0.0146
      3  C7        10.9720   36.4460   62.0960 C.ar    0  <0>0        0.0030
      4  C8         9.9150   36.0020   61.2950 C.ar    0  <0>0        0.0236
      5  C9         9.8070   34.6450   60.9740 C.ar    0  <0>0        0.0743
      6  C10       10.7440   33.7520   61.4430 C.ar    0  <0>0        0.0184
      7  N1        12.7350   33.2920   62.7200 N.pl3   0  <0>0       -0.3003
      8  C2        12.3070   32.1350   63.5100 C.3     0  <0>0        0.0911
      9  C1        12.8850   30.8580   62.8990 C.3     0  <0>0        0.0232
     10  C3        14.1560   33.4960   62.4290 C.3     0  <0>0        0.1953
     11  C4        14.9120   33.7510   63.7340 C.3     0  <0>0        0.4156
     12  F1        16.1640   34.3070   63.4470 F       0  <0>0       -0.1682
     13  F2        14.1800   34.6390   64.5310 F       0  <0>0       -0.1682
     14  F3        15.0840   32.5440   64.4180 F       0  <0>0       -0.1682
     15  C11        8.6700   34.1620   60.1120 C.3     0  <0>0        0.4187
     16  F4         8.6530   32.7630   60.1040 F       0  <0>0       -0.1659
     17  F5         7.4600   34.6380   60.6260 F       0  <0>0       -0.1659
     18  F6         8.8410   34.6340   58.8070 F       0  <0>0       -0.1659
     19  C12        8.9160   36.9610   60.7910 C.2     0  <0>0        0.0780
     20  S1         9.0740   37.6130   59.2160 S.2     0  <0>0       -0.0352
     21  N2         7.8790   37.3250   61.5710 N.am    0  <0>0       -0.3517
     22  H11        7.7890   36.9550   62.4630 H       0  <0>0        0.1428
     23  H12        7.2210   37.9560   61.2390 H       0  <0>0        0.1428
@<TRIPOS>BOND
     1    18    15    1
     2    20    19    2
     3    16    15    1
     4    15    17    1
     5    15     5    1
     6    19     4    1
     7    19    21    1
     8     5     4   ar
     9     5     6   ar
    10    23    21    1
    11     4     3   ar
    12     6     1   ar
    13    21    22    1
    14     3     2   ar
    15     1     2   ar
    16     1     7    1
    17    10     7    1
    18    10    11    1
    19     7     8    1
    20     9     8    1
    21    12    11    1
    22    11    14    1
    23    11    13    1
