@<TRIPOS>MOLECULE
ZINC36970899_replica-1.pdb
 18 18 0 0 0
SMALL
GASTEIGER

@<TRIPOS>ATOM
      1  C7        10.6590   35.2250   60.5050 C.ar    0  <0>0        0.0554
      2  C8        10.0100   34.9410   59.3110 C.ar    0  <0>0        0.0169
      3  C9         9.1150   35.8480   58.7790 C.ar    0  <0>0        0.0254
      4  C10        8.8640   37.0400   59.4340 C.ar    0  <0>0        0.1438
      5  C11        9.5080   37.3270   60.6240 C.ar    0  <0>0        0.0367
      6  C12       10.4000   36.4210   61.1640 C.ar    0  <0>0        0.0724
      7 Cl         11.2030   36.7800   62.6610 Cl      0  <0>0       -0.0809
      8  N1        11.5640   34.3080   61.0470 N.pl3   0  <0>0       -0.3320
      9  H14       12.4910   34.3170   60.7630 H       0  <0>0        0.1468
     10  C6        11.1120   33.3350   62.0440 C.3     0  <0>0        0.0870
     11  C4        12.2360   33.0730   63.0480 C.3     0  <0>0        0.0195
     12  C5        12.5800   31.5830   63.0530 C.3     0  <0>0        0.0017
     13  C3        13.4730   33.8820   62.6510 C.3     0  <0>0        0.0017
     14  C2        14.7330   33.1280   63.0810 C.3     0  <0>0        0.0001
     15  C1        15.3480   33.8180   64.3010 C.3     0  <0>0        0.0000
     16  N2         7.9050   38.0100   58.8610 N.pl3   0  <0>0        0.0577
     17  O1         6.9870   38.4210   59.5320 O.2     0  <0>0       -0.1261
     18  O2         8.0390   38.3910   57.7220 O.2     0  <0>0       -0.1261
@<TRIPOS>BOND
     1    18    16    2
     2     3     2   ar
     3     3     4   ar
     4    16     4    1
     5    16    17    2
     6     2     1   ar
     7     4     5   ar
     8     1     8    1
     9     1     6   ar
    10     5     6   ar
    11     9     8    1
    12     8    10    1
    13     6     7    1
    14    10    11    1
    15    13    11    1
    16    13    14    1
    17    11    12    1
    18    14    15    1
