@<TRIPOS>MOLECULE
ZINC01038270_replica-1.pdb
 22 24 0 0 0
SMALL
GASTEIGER

@<TRIPOS>ATOM
      1  C1         6.8240   35.1500   55.6170 C.3     0  <0>0        0.0008
      2  C2         6.8850   33.8770   56.4640 C.3     0  <0>0        0.0113
      3  C3         5.7490   33.8930   57.4890 C.3     0  <0>0        0.0275
      4  C4         5.9590   35.0890   58.4120 C.ar    0  <0>0       -0.0099
      5  C5         7.2530   35.6120   58.6550 C.ar    0  <0>0        0.0430
      6  C6         7.3390   36.7270   59.5060 C.ar    0  <0>0        0.0571
      7  S1         5.6920   37.0280   59.9420 S.2     0  <0>0       -0.0783
      8  C7         4.9130   35.7190   59.0240 C.ar    0  <0>0        0.0566
      9  C14        8.4130   35.0210   58.0600 C.2     0  <0>0        0.1737
     10  O1         9.5180   35.4850   58.2590 O.2     0  <0>0       -0.2913
     11  C15        8.2340   33.8090   57.1800 C.3     0  <0>0        0.0695
     12  C16        6.7330   32.6570   55.5540 C.3     0  <0>0        0.0008
     13  C8         3.4780   35.3880   58.9450 C.2     0  <0>0        0.1506
     14  N2         2.9280   34.5450   59.8200 N.2     0  <0>0       -0.3438
     15  C11        1.6400   34.2460   59.7470 C.1     0  <0>0        0.1158
     16  N1         0.8540   34.7730   58.8180 N.2     0  <0>0       -0.1770
     17  C10        1.3310   35.6210   57.9200 C.2     0  <0>0        0.1137
     18  C9         2.6700   35.9610   57.9530 C.2     0  <0>0        0.0550
     19  S2         0.9520   33.1220   60.9170 S.3     0  <0>0       -0.0295
     20  C12       -0.3390   34.1670   61.6350 C.3     0  <0>0        0.0861
     21  S3         8.7800   37.6080   60.0080 S.3     0  <0>0       -0.1062
     22  C13        9.0640   36.8480   61.6260 C.3     0  <0>0        0.0747
@<TRIPOS>BOND
     1    12     2    1
     2     1     2    1
     3     2    11    1
     4     2     3    1
     5    11     9    1
     6     3     4    1
     7    17    18    2
     8    17    16    1
     9    18    13    1
    10     9    10    2
    11     9     5    1
    12     4     5   ar
    13     4     8   ar
    14     5     6   ar
    15    16    15    2
    16    13     8    1
    17    13    14    2
    18     8     7   ar
    19     6     7   ar
    20     6    21    1
    21    15    14    2
    22    15    19    1
    23    21    22    1
    24    19    20    1
