@<TRIPOS>MOLECULE
ZINC26954273_replica-1.pdb
 20 23 0 0 0
SMALL
GASTEIGER

@<TRIPOS>ATOM
      1  C1         1.0200   35.6580   57.0840 C.3     0  <0>0        0.0112
      2  C2         1.8750   34.7870   58.0080 C.3     0  <0>0        0.0434
      3  C3         3.2270   35.4510   58.2290 C.3     0  <0>0        0.0330
      4  C4         4.0690   34.7060   59.2580 C.2     0  <0>0       -0.0266
      5  C5         3.5800   33.8780   60.1970 C.2     0  <0>0        0.0132
      6  S1         5.0030   33.3160   61.1080 S.3     0  <0>0       -0.0631
      7  C6         6.2560   34.1950   60.2130 C.2     0  <0>0        0.1510
      8  C7         5.5280   34.8910   59.2460 C.3     0  <0>0        0.1343
      9  C8         6.3270   35.7420   58.3220 C.ar    0  <0>0        0.1372
     10  N1         5.9150   36.4920   57.3350 N.ar    0  <0>0       -0.2282
     11  C9         7.0530   37.1560   56.6910 C.ar    0  <0>0        0.1193
     12  C10        8.2760   36.6620   57.4850 C.ar    0  <0>0        0.1046
     13  N2         7.6900   35.7660   58.4980 N.ar    0  <0>0       -0.2616
     14  C11        8.2830   35.0320   59.4890 C.2     0  <0>0        0.2278
     15  N3         7.5810   34.2810   60.3060 N.2     0  <0>0       -0.3753
     16  C13        2.1640   33.4620   60.4840 C.3     0  <0>0        0.0897
     17  S3         1.0420   34.6000   59.6150 S.3     0  <0>0       -0.1363
     18  C14        2.0770   33.4100   57.3720 C.3     0  <0>0        0.0112
     19  S2        10.0340   35.0960   59.6730 S.3     0  <0>0       -0.0630
     20  C12       10.1700   36.3800   60.9430 C.3     0  <0>0        0.0783
@<TRIPOS>BOND
     1    11    10   ar
     2    11    12   ar
     3     1     2    1
     4    10     9   ar
     5    18     2    1
     6    12    13   ar
     7     2     3    1
     8     2    17    1
     9     3     4    1
    10     9    13   ar
    11     9     8    1
    12    13    14    1
    13     8     4    1
    14     8     7    1
    15     4     5    2
    16    14    19    1
    17    14    15    2
    18    17    16    1
    19    19    20    1
    20     5    16    1
    21     5     6    1
    22     7    15    2
    23     7     6    1
