@<TRIPOS>MOLECULE
ZINC49526379_replica-1.pdb
 20 22 0 0 0
SMALL
GASTEIGER

@<TRIPOS>ATOM
      1  N1         7.6330   36.0240   57.7030 N.am    0  <0>0       -0.1148
      2  C9         7.6670   35.0220   56.7570 C.2     0  <0>0        0.3700
      3  N2         8.0820   35.5660   55.6340 N.2     0  <0>0        0.0931
      4  N3         8.3070   36.8190   55.8110 N.2     0  <0>0        0.0474
      5  C10        8.0440   37.1550   57.0540 C.1     0  <0>0        0.1798
      6  S1         8.1980   38.7640   57.7560 S.2     0  <0>0        0.0561
      7  C2         7.2360   35.9030   59.1070 C.3     0  <0>0        0.1974
      8  C1         6.3440   37.0860   59.4870 C.3     0  <0>0        0.0571
      9  C3         8.4640   35.8990   59.9790 C.ar    0  <0>0        0.0211
     10  C8         9.4800   34.9930   59.7380 C.ar    0  <0>0        0.0005
     11  C7        10.6090   34.9940   60.5340 C.ar    0  <0>0        0.0112
     12  C6        10.7190   35.8940   61.5790 C.ar    0  <0>0        0.0577
     13  C5         9.7000   36.7970   61.8230 C.ar    0  <0>0        0.0112
     14 Cl         12.1350   35.8910   62.5840 Cl      0  <0>0       -0.0822
     15  C4         8.5740   36.7990   61.0230 C.ar    0  <0>0        0.0005
     16  C11        7.3060   33.6110   56.9650 C.ar    0  <0>0        0.1152
     17  S2         5.6900   32.8510   56.9660 S.2     0  <0>0       -0.0790
     18  C14        6.2010   31.1690   57.2820 C.ar    0  <0>0        0.0357
     19  C13        7.5510   31.2940   57.3730 C.ar    0  <0>0        0.0077
     20  C12        8.1230   32.5360   57.2120 C.ar    0  <0>0        0.0146
@<TRIPOS>BOND
     1     3     4    1
     2     3     2    2
     3     4     5    2
     4     2    16    1
     5     2     1    1
     6    16    17   ar
     7    16    20   ar
     8    17    18   ar
     9     5     1    1
    10     5     6    2
    11    20    19   ar
    12    18    19   ar
    13     1     7    1
    14     7     8    1
    15     7     9    1
    16    10     9   ar
    17    10    11   ar
    18     9    15   ar
    19    11    12   ar
    20    15    13   ar
    21    12    13   ar
    22    12    14    1
