@<TRIPOS>MOLECULE
ZINC63101946_replica-1.pdb
 28 29 0 0 0
SMALL
GASTEIGER

@<TRIPOS>ATOM
      1  C7         2.4770   33.0920   56.3570 C.2     0  <0>0        0.2479
      2  O1         1.5310   33.7850   56.6830 O.2     0  <0>0       -0.2701
      3  N2         2.3240   31.7590   56.2300 N.am    0  <0>0       -0.2984
      4  H4         3.0780   31.2080   55.9690 H       0  <0>0        0.1498
      5  C8         1.0190   31.1440   56.4860 C.3     0  <0>0        0.1229
      6  C9         0.2660   30.9780   55.1650 C.3     0  <0>0        0.1736
      7  C10       -0.5100   29.6600   55.1830 C.3     0  <0>0        0.2361
      8  O2        -1.1590   29.4720   53.9230 O.3     0  <0>0       -0.4728
      9  C11       -0.9630   28.2790   53.3000 C.ar    0  <0>0        0.1388
     10  C16       -1.5100   28.0530   52.0460 C.ar    0  <0>0        0.0392
     11  C15       -1.3030   26.8440   51.4100 C.ar    0  <0>0        0.0327
     12  C14       -0.5610   25.8540   52.0300 C.ar    0  <0>0        0.1403
     13  C13       -0.0180   26.0760   53.2840 C.ar    0  <0>0        0.0327
     14  F4        -0.3650   24.6700   51.4100 F       0  <0>0       -0.2042
     15  C12       -0.2170   27.2870   53.9190 C.ar    0  <0>0        0.0392
     16  O3        -0.6460   32.0660   54.9970 O.3     0  <0>0       -0.3791
     17  H14       -0.2960   32.9210   55.2830 H       0  <0>0        0.2106
     18  C3         3.7900   33.7120   56.0990 C.ar    0  <0>0        0.0771
     19  C2         4.0970   34.2290   54.8360 C.ar    0  <0>0        0.0081
     20  C1         5.3440   34.8000   54.6450 C.ar    0  <0>0        0.0209
     21  C5         6.2410   34.8460   55.6970 C.ar    0  <0>0        0.0994
     22  N1         5.9320   34.3530   56.8810 N.ar    0  <0>0       -0.2372
     23  C4         4.7540   33.7950   57.1190 C.ar    0  <0>0        0.1183
     24  S1         4.3960   33.1550   58.7210 S.3     0  <0>0        0.0048
     25  C6         3.7810   34.5920   59.6400 C.3     0  <0>0        0.4490
     26  F1         4.7570   35.0190   60.5460 F       0  <0>0       -0.1599
     27  F2         3.4900   35.6270   58.7450 F       0  <0>0       -0.1599
     28  F3         2.6200   34.2390   60.3370 F       0  <0>0       -0.1599
@<TRIPOS>BOND
     1    11    12   ar
     2    11    10   ar
     3    14    12    1
     4    12    13   ar
     5    10     9   ar
     6    13    15   ar
     7     9    15   ar
     8     9     8    1
     9     8     7    1
    10    20    19   ar
    11    20    21   ar
    12    19    18   ar
    13    16     6    1
    14    16    17    1
    15     6     7    1
    16     6     5    1
    17    21    22   ar
    18     4     3    1
    19    18     1    1
    20    18    23   ar
    21     3     1   am
    22     3     5    1
    23     1     2    2
    24    22    23   ar
    25    23    24    1
    26    24    25    1
    27    27    25    1
    28    25    28    1
    29    25    26    1
