@<TRIPOS>MOLECULE
ZINC11592544_replica-1.pdb
 22 22 0 0 0
SMALL
GASTEIGER

@<TRIPOS>ATOM
      1  C10        8.8210   34.8940   57.2620 C.2     0  <0>0       -0.0052
      2  C11        7.7930   34.0210   57.1190 C.2     0  <0>0       -0.0046
      3  C12        6.6190   34.1850   57.8830 C.2     0  <0>0       -0.0219
      4  C13        5.6690   35.0750   57.4890 C.2     0  <0>0       -0.0043
      5  C20        6.4180   33.3740   59.1370 C.3     0  <0>0        0.0310
      6  C14        4.4970   35.2380   58.2530 C.2     0  <0>0       -0.0007
      7  C15        3.3850   34.5240   57.9480 C.2     0  <0>0       -0.0045
      8  C16        2.1680   34.6930   58.7400 C.2     0  <0>0       -0.0237
      9  C17        1.1380   35.3800   58.2420 C.2     0  <0>0        0.0011
     10  C19        2.0770   34.0900   60.1190 C.3     0  <0>0        0.0308
     11  C18        1.1690   35.8560   56.8120 C.3     0  <0>0        0.1630
     12  O1        -0.1080   36.3930   56.4610 O.3     0  <0>0       -0.3772
     13  H24       -0.8390   36.0500   56.9920 H       0  <0>0        0.2109
     14  C3         8.6600   36.0840   58.0950 C.2     0  <0>0       -0.0307
     15  C2         8.1960   37.1830   57.5280 C.2     0  <0>0       -0.0479
     16  C1         7.8530   37.1370   56.0610 C.3     0  <0>0        0.0260
     17  C7         7.9960   38.4780   58.2610 C.3     0  <0>0        0.0217
     18  C6         7.9770   38.2270   59.7730 C.3     0  <0>0        0.0047
     19  C5         9.2060   37.3870   60.1380 C.3     0  <0>0        0.0044
     20  C4         9.0330   35.9880   59.5450 C.3     0  <0>0        0.0183
     21  C8         7.9290   35.2490   60.3040 C.3     0  <0>0        0.0043
     22  C9        10.3450   35.2130   59.6820 C.3     0  <0>0        0.0043
@<TRIPOS>BOND
     1    16    15    1
     2    12    11    1
     3    12    13    1
     4    11     9    1
     5     2     1    2
     6     2     3    1
     7     1    14    1
     8     4     3    2
     9     4     6    1
    10    15    14    2
    11    15    17    1
    12     3     5    1
    13     7     6    2
    14     7     8    1
    15    14    20    1
    16     9     8    2
    17    17    18    1
    18     8    10    1
    19    20    22    1
    20    20    19    1
    21    20    21    1
    22    18    19    1
