@<TRIPOS>MOLECULE
ZINC36931981_replica-1.pdb
 20 20 0 0 0
SMALL
GASTEIGER

@<TRIPOS>ATOM
      1  C9         0.5850   30.6400   57.2350 C.ar    0  <0>0        0.0641
      2  C10        0.0130   31.8470   56.8370 C.ar    0  <0>0        0.0188
      3  C11        0.2160   32.9640   57.6290 C.ar    0  <0>0        0.0392
      4  C12        0.9750   32.8470   58.7790 C.ar    0  <0>0        0.1863
      5  N2         1.5050   31.6920   59.1280 N.ar    0  <0>0       -0.2244
      6  C13        1.3300   30.6020   58.4060 C.ar    0  <0>0        0.1146
      7  N1         0.4080   29.4850   56.4690 N.pl3   0  <0>0       -0.3328
      8  H18        0.9020   28.6790   56.6850 H       0  <0>0        0.1468
      9  C6        -0.5250   29.4910   55.3400 C.3     0  <0>0        0.0691
     10  C5         0.1240   28.8040   54.1370 C.3     0  <0>0        0.0195
     11  C3        -0.6230   27.5040   53.8290 C.3     0  <0>0        0.0016
     12  C4         0.2950   26.3110   54.1060 C.3     0  <0>0        0.0001
     13  C2        -1.0430   27.4940   52.3580 C.3     0  <0>0        0.0001
     14  C1        -0.8600   26.0870   51.7850 C.3     0  <0>0        0.0000
     15  C7        -1.8010   28.7400   55.7280 C.3     0  <0>0        0.0195
     16  C8        -2.9540   29.7360   55.8790 C.3     0  <0>0        0.0017
     17  S1         1.2400   34.2640   59.7920 S.O2    0  <0>0        0.0268
     18  O1         2.5430   34.0860   60.3310 O.2     0  <0>0       -0.1671
     19  O2         0.9510   35.3720   58.9490 O.2     0  <0>0       -0.1671
     20  C14       -0.0040   34.1370   61.1060 C.3     0  <0>0        0.1834
@<TRIPOS>BOND
     1    14    13    1
     2    13    11    1
     3    11    12    1
     4    11    10    1
     5    10     9    1
     6     9    15    1
     7     9     7    1
     8    15    16    1
     9     7     8    1
    10     7     1    1
    11     2     1   ar
    12     2     3   ar
    13     1     6   ar
    14     3     4   ar
    15     6     5   ar
    16     4     5   ar
    17     4    17    1
    18    19    17    2
    19    17    18    2
    20    17    20    1
