@<TRIPOS>MOLECULE
ZINC14270831_replica-1.pdb
 28 30 0 0 0
SMALL
GASTEIGER

@<TRIPOS>ATOM
      1  C9         9.2110   36.0510   60.2830 C.2     0  <0>0        0.1433
      2  S2         8.9070   36.9860   61.6830 S.2     0  <0>0       -0.0181
      3  N3         8.2430   35.8850   59.3600 N.am    0  <0>0       -0.2634
      4  C10        7.0350   36.4560   59.5390 C.2     0  <0>0        0.2537
      5  O1         6.8200   37.1200   60.5340 O.2     0  <0>0       -0.2697
      6  H7         8.4150   35.3550   58.5660 H       0  <0>0        0.1568
      7  N2        10.4190   35.4790   60.1030 N.am    0  <0>0       -0.2659
      8  H6        11.0000   35.7890   59.3910 H       0  <0>0        0.1567
      9  C8        10.8280   34.4510   60.9340 C.2     0  <0>0        0.2164
     10  S1         9.9030   33.0300   61.4990 S.3     0  <0>0       -0.0377
     11  C6        11.1910   32.3000   62.4810 C.2     0  <0>0        0.0584
     12  C5        12.2560   33.2120   62.3040 C.2     0  <0>0        0.1351
     13  C7        11.3010   31.1750   63.2590 C.2     0  <0>0       -0.0130
     14  C4        13.4610   32.9030   62.9780 C.2     0  <0>0        0.0043
     15  N1        11.9950   34.2720   61.5100 N.2     0  <0>0       -0.3803
     16  C3        13.5610   31.7770   63.7520 C.2     0  <0>0       -0.0238
     17  C18       14.6480   33.8220   62.8440 C.3     0  <0>0        0.0334
     18  C2        12.4910   30.9070   63.9080 C.3     0  <0>0        0.0443
     19  C1        12.6280   29.6800   64.7720 C.3     0  <0>0        0.0094
     20  C11        5.9770   36.2750   58.5300 C.ar    0  <0>0        0.0881
     21  C16        6.2790   36.3700   57.1650 C.ar    0  <0>0        0.1431
     22  C15        5.2770   36.1920   56.2230 C.ar    0  <0>0        0.0376
     23  C14        3.9830   35.9330   56.6310 C.ar    0  <0>0        0.0098
     24  C13        3.6770   35.8430   57.9790 C.ar    0  <0>0        0.0349
     25  C12        4.6630   36.0110   58.9280 C.ar    0  <0>0        0.0143
     26 Br          1.9000   35.4880   58.5200 Br      0  <0>0       -0.0490
     27  O2         7.5500   36.6310   56.7670 O.3     0  <0>0       -0.4713
     28  C17        7.8130   36.5800   55.3620 C.3     0  <0>0        0.2525
@<TRIPOS>BOND
     1    28    27    1
     2    22    23   ar
     3    22    21   ar
     4    23    24   ar
     5    27    21    1
     6    21    20   ar
     7    24    26    1
     8    24    25   ar
     9    20    25   ar
    10    20     4    1
    11     6     3    1
    12     3     4   am
    13     3     1    1
    14     8     7    1
    15     4     5    2
    16     7     1    1
    17     7     9    1
    18     1     2    2
    19     9    10    1
    20     9    15    2
    21    10    11    1
    22    15    12    2
    23    12    11    1
    24    12    14    1
    25    11    13    2
    26    17    14    1
    27    14    16    2
    28    13    18    1
    29    16    18    1
    30    18    19    1
