@<TRIPOS>MOLECULE
ZINC37060089_replica-1.pdb
 20 20 0 0 0
SMALL
GASTEIGER

@<TRIPOS>ATOM
      1  C9         9.1560   35.9260   58.6570 C.ar    0  <0>0        0.0570
      2  C10        9.8300   34.9370   59.3600 C.ar    0  <0>0        0.0392
      3  C11       10.3540   35.2140   60.6080 C.ar    0  <0>0        0.1442
      4  C12       10.2070   36.4740   61.1580 C.ar    0  <0>0        0.0250
      5  C13        9.5350   37.4620   60.4610 C.ar    0  <0>0        0.0143
      6  C14        9.0140   37.1940   59.2100 C.ar    0  <0>0        0.0708
      7 Cl          8.1770   38.4370   58.3330 Cl      0  <0>0       -0.0810
      8  N1         8.6240   35.6500   57.3940 N.pl3   0  <0>0       -0.3333
      9  H18        9.2170   35.5210   56.6370 H       0  <0>0        0.1468
     10  C6         7.1730   35.5550   57.2150 C.3     0  <0>0        0.0690
     11  C5         6.6500   34.3140   57.9400 C.3     0  <0>0        0.0195
     12  C3         5.6670   34.7380   59.0320 C.3     0  <0>0        0.0016
     13  C4         6.2780   34.4560   60.4060 C.3     0  <0>0        0.0001
     14  C2         5.3740   36.2340   58.9020 C.3     0  <0>0        0.0001
     15  C1         5.5800   36.9150   60.2560 C.3     0  <0>0        0.0000
     16  C7         6.8510   35.4500   55.7230 C.3     0  <0>0        0.0195
     17  C8         7.6430   36.5080   54.9530 C.3     0  <0>0        0.0017
     18  N2        11.0740   34.1600   61.3580 N.pl3   0  <0>0        0.0577
     19  O1        12.2120   34.3470   61.7190 O.2     0  <0>0       -0.1261
     20  O2        10.5240   33.1130   61.6080 O.2     0  <0>0       -0.1261
@<TRIPOS>BOND
     1    17    16    1
     2    16    10    1
     3     9     8    1
     4    10     8    1
     5    10    11    1
     6     8     1    1
     7    11    12    1
     8     7     6    1
     9     1     6   ar
    10     1     2   ar
    11    14    12    1
    12    14    15    1
    13    12    13    1
    14     6     5   ar
    15     2     3   ar
    16     5     4   ar
    17     3     4   ar
    18     3    18    1
    19    18    20    2
    20    18    19    2
