@<TRIPOS>MOLECULE
ZINC03229393_replica-1.pdb
 27 29 0 0 0
SMALL
GASTEIGER

@<TRIPOS>ATOM
      1  C10        0.1100   29.5020   55.5570 C.2     0  <0>0        0.2942
      2  O1        -0.3150   29.5400   56.6960 O.2     0  <0>0       -0.2656
      3  N2         0.6500   30.6060   55.0040 N.am    0  <0>0       -0.2002
      4  H7         0.9890   30.5760   54.0950 H       0  <0>0        0.1777
      5  N3         0.7240   31.7950   55.7410 N.2     0  <0>0       -0.1771
      6  C11        1.8340   32.1260   56.3290 C.2     0  <0>0        0.1222
      7  C12        1.9110   33.3770   57.1040 C.ar    0  <0>0        0.0802
      8  C17        1.3620   33.4430   58.3890 C.ar    0  <0>0        0.1735
      9  C16        1.4370   34.6190   59.1120 C.ar    0  <0>0        0.1970
     10  F1         0.7590   32.3580   58.9240 F       0  <0>0       -0.2016
     11  C15        2.0560   35.7340   58.5640 C.ar    0  <0>0        0.1991
     12  F2         0.9080   34.6840   60.3520 F       0  <0>0       -0.1993
     13  C14        2.6030   35.6760   57.2910 C.ar    0  <0>0        0.1970
     14  F3         2.1270   36.8800   59.2750 F       0  <0>0       -0.1993
     15  C13        2.5390   34.5030   56.5610 C.ar    0  <0>0        0.1735
     16  F4         3.2040   36.7660   56.7650 F       0  <0>0       -0.1993
     17  F5         3.0770   34.4470   55.3230 F       0  <0>0       -0.2016
     18  C9         0.0310   28.2450   54.7780 C.2     0  <0>0        0.1854
     19  C8         0.6180   27.0800   55.2940 C.2     0  <0>0        0.0329
     20  C7         0.5530   25.9160   54.5860 C.2     0  <0>0       -0.0123
     21  C5        -0.1110   25.9270   53.3450 C.3     0  <0>0        0.0963
     22  C4        -0.6830   27.1390   52.8780 C.2     0  <0>0        0.1169
     23  C6        -0.2150   24.7640   52.5640 C.2     0  <0>0       -0.0150
     24  C3        -1.3460   27.1480   51.6360 C.2     0  <0>0        0.0282
     25  N1        -0.5880   28.2460   53.6130 N.2     0  <0>0       -0.4009
     26  C2        -1.4240   26.0040   50.9040 C.2     0  <0>0        0.0020
     27  C1        -0.8660   24.8140   51.3680 C.2     0  <0>0       -0.0038
@<TRIPOS>BOND
     1    26    27    1
     2    26    24    2
     3    27    23    2
     4    24    22    1
     5    23    21    1
     6    22    21    1
     7    22    25    2
     8    21    20    1
     9    25    18    2
    10     4     3    1
    11    20    19    2
    12    18    19    1
    13    18     1    1
    14     3     1   am
    15     3     5    1
    16    17    15    1
    17     1     2    2
    18     5     6    2
    19     6     7    1
    20    15     7   ar
    21    15    13   ar
    22    16    13    1
    23     7     8   ar
    24    13    11   ar
    25     8    10    1
    26     8     9   ar
    27    11     9   ar
    28    11    14    1
    29     9    12    1
