@<TRIPOS>MOLECULE
ZINC07129773_replica-1.pdb
 25 27 0 0 0
SMALL
GASTEIGER

@<TRIPOS>ATOM
      1  C7         1.1300   31.6820   57.7450 C.ar    0  <0>0        0.2787
      2  N2        -0.1430   31.9290   57.9400 N.ar    0  <0>0       -0.1006
      3  N3        -0.8390   31.3360   57.0340 N.ar    0  <0>0       -0.1059
      4  C8        -0.0370   30.6870   56.2230 C.ar    0  <0>0        0.2563
      5  O2         1.2270   30.8870   56.6600 O.2     0  <0>0       -0.4104
      6  S1         2.4680   32.2740   58.7250 S.3     0  <0>0       -0.0455
      7  C6         2.3230   34.0510   58.4140 C.3     0  <0>0        0.1514
      8  C5         1.4010   34.6670   59.4360 C.2     0  <0>0        0.2340
      9  N1         0.7800   33.8850   60.3410 N.am    0  <0>0       -0.3036
     10  H11        0.9270   32.9260   60.3360 H       0  <0>0        0.1495
     11  O1         1.2170   35.8660   59.4420 O.2     0  <0>0       -0.2741
     12  C4        -0.1170   34.4830   61.3330 C.3     0  <0>0        0.0894
     13  C3        -0.2480   33.5440   62.5330 C.3     0  <0>0        0.0212
     14  C2        -0.0240   32.1000   62.0770 C.3     0  <0>0        0.0017
     15  C1        -0.3570   31.1450   63.2250 C.3     0  <0>0        0.0001
     16  C9        -0.4390   29.8830   55.0590 C.ar    0  <0>0        0.0839
     17  S2        -1.6370   30.2620   53.7880 S.2     0  <0>0       -0.0869
     18  C12       -1.4580   28.7750   52.8380 C.ar    0  <0>0        0.0034
     19  C11       -0.5080   28.0630   53.5100 C.ar    0  <0>0       -0.0195
     20  C13       -2.1720   28.3820   51.5860 C.3     0  <0>0        0.0326
     21  C10        0.0110   28.6410   54.6610 C.ar    0  <0>0        0.0071
     22  C16       -0.0650   26.6960   52.9960 C.3     0  <0>0        0.0266
     23  C15       -1.1230   26.1660   52.0270 C.3     0  <0>0        0.0047
     24  C14       -1.4090   27.2100   50.9440 C.3     0  <0>0        0.0055
     25  C17       -0.6120   24.8820   51.3700 C.3     0  <0>0        0.0004
@<TRIPOS>BOND
     1    24    20    1
     2    24    23    1
     3    25    23    1
     4    20    18    1
     5    23    22    1
     6    18    19   ar
     7    18    17   ar
     8    22    19    1
     9    19    21   ar
    10    17    16   ar
    11    21    16   ar
    12    16     4    1
    13     4     5   ar
    14     4     3   ar
    15     5     1   ar
    16     3     2   ar
    17     1     2   ar
    18     1     6    1
    19     7     6    1
    20     7     8    1
    21     8    11    2
    22     8     9   am
    23    10     9    1
    24     9    12    1
    25    12    13    1
    26    14    13    1
    27    14    15    1
