@<TRIPOS>MOLECULE
ZINC37274551_replica-1.pdb
 22 23 0 0 0
SMALL
GASTEIGER

@<TRIPOS>ATOM
      1  N1        -0.8180   27.7020   56.0190 N.3     0  <0>0       -0.2959
      2  H12       -1.5290   27.0610   55.6990 H       0  <0>0        0.1235
      3  C2         0.2470   26.9900   56.7390 C.3     0  <0>0        0.0587
      4  C1         1.0710   27.9920   57.5510 C.3     0  <0>0        0.0174
      5  C3        -0.3760   25.9590   57.6820 C.3     0  <0>0        0.0429
      6  C4        -0.1030   24.5710   57.1620 C.ar    0  <0>0       -0.0103
      7  C9        -0.4440   23.4680   57.9230 C.ar    0  <0>0        0.0537
      8  C8        -0.1970   22.1940   57.4430 C.ar    0  <0>0        0.0111
      9 Cl         -1.1860   23.6810   59.4780 Cl      0  <0>0       -0.0826
     10  C7         0.3980   22.0250   56.2070 C.ar    0  <0>0        0.0008
     11  C6         0.7430   23.1280   55.4490 C.ar    0  <0>0       -0.0003
     12  C5         0.4920   24.4010   55.9260 C.ar    0  <0>0       -0.0034
     13  C10       -0.2680   28.4790   54.9010 C.3     0  <0>0        0.0767
     14  C11       -0.6370   27.8160   53.5990 C.ar    0  <0>0       -0.0080
     15  C16       -0.2250   26.5210   53.3430 C.ar    0  <0>0       -0.0030
     16  C15       -0.5680   25.9110   52.1500 C.ar    0  <0>0       -0.0003
     17  C14       -1.3130   26.5990   51.2110 C.ar    0  <0>0       -0.0000
     18  C13       -1.7200   27.8950   51.4650 C.ar    0  <0>0       -0.0003
     19  C12       -1.3810   28.5040   52.6590 C.ar    0  <0>0       -0.0030
     20  C17       -0.8460   29.8960   54.9320 C.3     0  <0>0        0.0186
     21  C18       -1.8680   30.0050   56.0650 C.3     0  <0>0        0.0017
     22  C19        0.2840   30.9010   55.1650 C.3     0  <0>0        0.0017
@<TRIPOS>BOND
     1    17    18   ar
     2    17    16   ar
     3    18    19   ar
     4    16    15   ar
     5    19    14   ar
     6    15    14   ar
     7    14    13    1
     8    13    20    1
     9    13     1    1
    10    20    22    1
    11    20    21    1
    12    11    12   ar
    13    11    10   ar
    14     2     1    1
    15    12     6   ar
    16     1     3    1
    17    10     8   ar
    18     3     4    1
    19     3     5    1
    20     6     5    1
    21     6     7   ar
    22     8     7   ar
    23     7     9    1
