@<TRIPOS>MOLECULE
ZINC38166522_replica-1.pdb
 22 24 0 0 0
SMALL
GASTEIGER

@<TRIPOS>ATOM
      1  N2         0.2260   28.4820   55.3470 N.pl3   0  <0>0       -0.2188
      2  H4         0.6910   27.6360   55.4380 H       0  <0>0        0.1760
      3  N1         0.3790   29.4740   56.3260 N.2     0  <0>0       -0.1845
      4  C2        -0.2050   29.3440   57.4780 C.2     0  <0>0        0.0766
      5  C1        -0.1710   30.4760   58.4720 C.3     0  <0>0        0.0537
      6  C11       -0.8990   28.0880   57.8160 C.ar    0  <0>0        0.0151
      7  C16       -2.2940   28.0240   57.7760 C.ar    0  <0>0        0.0017
      8  C15       -2.9370   26.8440   58.0880 C.ar    0  <0>0        0.0067
      9  C14       -2.2030   25.7270   58.4510 C.ar    0  <0>0        0.0346
     10  C13       -0.8200   25.7840   58.4970 C.ar    0  <0>0        0.0067
     11 Br         -3.0940   24.1160   58.8830 Br      0  <0>0       -0.0490
     12  C12       -0.1650   26.9560   58.1830 C.ar    0  <0>0        0.0017
     13  C3        -0.5900   28.7090   54.2530 C.ar    0  <0>0        0.1689
     14  N4        -1.2390   29.8540   54.1230 N.ar    0  <0>0       -0.1314
     15  N3        -2.0020   30.1190   53.1290 N.ar    0  <0>0       -0.1452
     16  C10       -2.2280   29.2810   52.1430 C.ar    0  <0>0        0.1222
     17  C9        -1.6030   28.0210   52.1610 C.ar    0  <0>0        0.0237
     18  C4        -0.7510   27.7200   53.2560 C.ar    0  <0>0        0.0363
     19  C8        -1.7900   27.0680   51.1500 C.ar    0  <0>0        0.0017
     20  C5        -0.1110   26.4780   53.3120 C.ar    0  <0>0        0.0029
     21  C6        -0.3140   25.5740   52.3120 C.ar    0  <0>0        0.0001
     22  C7        -1.1500   25.8670   51.2370 C.ar    0  <0>0        0.0001
@<TRIPOS>BOND
     1    19    22   ar
     2    19    17   ar
     3    22    21   ar
     4    16    17   ar
     5    16    15   ar
     6    17    18   ar
     7    21    20   ar
     8    15    14   ar
     9    18    20   ar
    10    18    13   ar
    11    14    13   ar
    12    13     1    1
    13     1     2    1
    14     1     3    1
    15     3     4    2
    16     4     6    1
    17     4     5    1
    18     7     6   ar
    19     7     8   ar
    20     6    12   ar
    21     8     9   ar
    22    12    10   ar
    23     9    10   ar
    24     9    11    1
