@<TRIPOS>MOLECULE
ZINC35325447_replica-1.pdb
 26 29 0 0 0
SMALL
GASTEIGER

@<TRIPOS>ATOM
      1  C8         5.8650   35.5800   56.4960 C.ar    0  <0>0        0.1027
      2  C9         6.3570   36.2720   57.6030 C.ar    0  <0>0        0.0725
      3  C10        7.6170   36.7760   57.4250 C.ar    0  <0>0        0.0443
      4  S1         8.0320   36.3330   55.8780 S.2     0  <0>0        0.0102
      5  N1         6.6490   35.4970   55.4380 N.ar    0  <0>0       -0.2082
      6  C11        8.3850   37.5420   58.4550 C.3     0  <0>0        0.0625
      7  C12        7.3810   38.2500   59.3740 C.3     0  <0>0        0.0947
      8  C13        6.2400   37.3370   59.7240 C.2     0  <0>0        0.2268
      9  O2         5.7880   37.3790   60.8490 O.2     0  <0>0       -0.2748
     10  N2         5.6990   36.4750   58.8430 N.am    0  <0>0       -0.2825
     11  H11        4.8770   36.0040   59.0520 H       0  <0>0        0.1549
     12  C5         4.5200   34.9550   56.5110 C.ar    0  <0>0        0.0197
     13  C4         3.3800   35.7560   56.5160 C.ar    0  <0>0        0.0047
     14  C3         2.1290   35.1720   56.5290 C.ar    0  <0>0        0.0369
     15  C2         2.0070   33.7900   56.5390 C.ar    0  <0>0        0.1387
     16  C7         3.1420   32.9900   56.5400 C.ar    0  <0>0        0.0369
     17  C6         4.3950   33.5670   56.5210 C.ar    0  <0>0        0.0047
     18  O1         0.7750   33.2180   56.5530 O.3     0  <0>0       -0.4714
     19  C1         0.0620   33.2440   57.7910 C.3     0  <0>0        0.2525
     20  C14        9.2360   36.5960   59.2620 C.ar    0  <0>0       -0.0165
     21  C19        9.8010   37.0170   60.4510 C.ar    0  <0>0        0.0075
     22  C18       10.5770   36.1460   61.1940 C.ar    0  <0>0        0.0574
     23  C17       10.7950   34.8570   60.7420 C.ar    0  <0>0        0.0114
     24 Cl         11.2810   36.6730   62.6910 Cl      0  <0>0       -0.0823
     25  C16       10.2340   34.4390   59.5500 C.ar    0  <0>0        0.0006
     26  C15        9.4540   35.3080   58.8110 C.ar    0  <0>0       -0.0039
@<TRIPOS>BOND
     1     5     4   ar
     2     5     1   ar
     3     4     3   ar
     4     1    12    1
     5     1     2   ar
     6    12    13   ar
     7    12    17   ar
     8    13    14   ar
     9    17    16   ar
    10    14    15   ar
    11    15    16   ar
    12    15    18    1
    13    18    19    1
    14     3     2   ar
    15     3     6    1
    16     2    10    1
    17     6    20    1
    18     6     7    1
    19    26    20   ar
    20    26    25   ar
    21    10    11    1
    22    10     8   am
    23    20    21   ar
    24     7     8    1
    25    25    23   ar
    26     8     9    2
    27    21    22   ar
    28    23    22   ar
    29    22    24    1
