@<TRIPOS>MOLECULE
ZINC49927819_replica-1.pdb
 25 26 0 0 0
SMALL
GASTEIGER

@<TRIPOS>ATOM
      1  C10       -1.1020   30.0000   55.1160 C.3     0  <0>0        0.1550
      2  C4        -0.9160   28.7960   54.2280 C.ar    0  <0>0        0.0396
      3  C3        -1.4730   28.7770   52.9650 C.ar    0  <0>0       -0.0034
      4  C2        -1.3020   27.6740   52.1490 C.ar    0  <0>0       -0.0258
      5  C1        -1.9110   27.6560   50.7700 C.3     0  <0>0        0.0307
      6  C7        -0.5780   26.5850   52.5990 C.ar    0  <0>0       -0.0228
      7  C6        -0.0150   26.6010   53.8590 C.ar    0  <0>0        0.0321
      8  C8        -0.3990   25.3810   51.7090 C.3     0  <0>0        0.0308
      9  C5        -0.1840   27.7070   54.6790 C.ar    0  <0>0        0.1367
     10  O1         0.3650   27.7240   55.9220 O.3     0  <0>0       -0.4717
     11  C9         0.2530   26.5280   56.6970 C.3     0  <0>0        0.2525
     12  C11        0.0190   31.0070   54.8500 C.3     0  <0>0        0.1214
     13  N1         1.1170   30.7740   55.7910 N.pl3   0  <0>0       -0.3304
     14  H15        1.9030   30.2810   55.5070 H       0  <0>0        0.1469
     15  C12        1.0330   31.2580   57.0990 C.ar    0  <0>0        0.0447
     16  C17        1.1590   32.6190   57.3460 C.ar    0  <0>0        0.0140
     17  C16        1.0680   33.0950   58.6390 C.ar    0  <0>0       -0.0030
     18  C15        0.8630   32.2180   59.6880 C.ar    0  <0>0       -0.0224
     19  C14        0.7430   30.8610   59.4460 C.ar    0  <0>0       -0.0030
     20  C13        0.8260   30.3800   58.1540 C.ar    0  <0>0        0.0140
     21  C18        0.7710   32.7400   61.0990 C.3     0  <0>0        0.0224
     22  C19        0.0040   34.0640   61.1030 C.3     0  <0>0        0.0047
     23  C20        0.0350   31.7220   61.9730 C.3     0  <0>0        0.0047
     24  O2        -2.3650   30.6080   54.8360 O.3     0  <0>0       -0.3782
     25  H27       -2.3010   31.5110   54.4980 H       0  <0>0        0.2109
@<TRIPOS>BOND
     1     5     4    1
     2     8     6    1
     3     4     6   ar
     4     4     3   ar
     5     6     7   ar
     6     3     2   ar
     7     7     9   ar
     8     2     9   ar
     9     2     1    1
    10    25    24    1
    11     9    10    1
    12    24     1    1
    13    12     1    1
    14    12    13    1
    15    14    13    1
    16    13    15    1
    17    10    11    1
    18    15    16   ar
    19    15    20   ar
    20    16    17   ar
    21    20    19   ar
    22    17    18   ar
    23    19    18   ar
    24    18    21    1
    25    21    22    1
    26    21    23    1
