@<TRIPOS>MOLECULE
ZINC19241373_replica-1.pdb
 29 31 0 0 0
SMALL
GASTEIGER

@<TRIPOS>ATOM
      1  N1         0.8810   30.3300   56.6010 N.am    0  <0>0       -0.3015
      2  C14        1.0460   31.6660   56.5360 C.2     0  <0>0        0.2341
      3  O1         0.0870   32.3870   56.3540 O.2     0  <0>0       -0.2741
      4  H20        1.7510   29.6760   56.7670 H       0  <0>0        0.1497
      5  C10       -0.4560   29.7480   56.4530 C.3     0  <0>0        0.0940
      6  C7        -0.5060   28.9200   55.1950 C.ar    0  <0>0       -0.0045
      7  C6        -1.2920   29.3240   54.1330 C.ar    0  <0>0       -0.0030
      8  C5        -1.3380   28.5650   52.9780 C.ar    0  <0>0       -0.0045
      9  C4        -0.5980   27.4010   52.8870 C.ar    0  <0>0       -0.0225
     10  C9         0.1880   26.9970   53.9490 C.ar    0  <0>0       -0.0045
     11  C8         0.2380   27.7580   55.1020 C.ar    0  <0>0       -0.0030
     12  C2        -0.6470   26.5740   51.6280 C.3     0  <0>0        0.0224
     13  C1        -0.6110   25.0890   51.9910 C.3     0  <0>0        0.0047
     14  C3        -1.9390   26.8820   50.8670 C.3     0  <0>0        0.0047
     15  C11       -0.7630   28.8610   57.6600 C.3     0  <0>0        0.0222
     16  C12       -0.5180   29.6490   58.9480 C.3     0  <0>0        0.0020
     17  C13       -2.2250   28.4140   57.6060 C.3     0  <0>0        0.0020
     18  C15        2.4200   32.2640   56.6880 C.3     0  <0>0        0.1489
     19  S1         2.2750   33.9600   57.3150 S.3     0  <0>0       -0.0768
     20  C16        1.6130   33.7610   58.9350 C.ar    0  <0>0        0.1610
     21  S2         1.8670   32.4370   60.1070 S.2     0  <0>0       -0.0245
     22  C17        0.8320   33.0770   61.4150 C.ar    0  <0>0        0.1828
     23  N3         0.4030   34.2030   60.8790 N.ar    0  <0>0       -0.1252
     24  N2         0.8030   34.5540   59.6110 N.ar    0  <0>0       -0.1331
     25  N4         0.5580   32.5360   62.6660 N.pl3   0  <0>0       -0.3132
     26  H23        1.1380   32.8580   63.5440 H       0  <0>0        0.1487
     27  C18       -0.5040   31.5380   62.8150 C.3     0  <0>0        0.0710
     28  C20       -0.4500   30.6270   64.0440 C.3     0  <0>0        0.0212
     29  C19       -0.1170   30.0660   62.6600 C.3     0  <0>0        0.0212
@<TRIPOS>BOND
     1    14    12    1
     2    12    13    1
     3    12     9    1
     4     9     8   ar
     5     9    10   ar
     6     8     7   ar
     7    10    11   ar
     8     7     6   ar
     9    11     6   ar
    10     6     5    1
    11     3     2    2
    12     5     1    1
    13     5    15    1
    14     2     1   am
    15     2    18    1
    16     1     4    1
    17    18    19    1
    18    19    20    1
    19    17    15    1
    20    15    16    1
    21    20    24   ar
    22    20    21   ar
    23    24    23   ar
    24    21    22   ar
    25    23    22   ar
    26    22    25    1
    27    29    27    1
    28    29    28    1
    29    25    27    1
    30    25    26    1
    31    27    28    1
