@<TRIPOS>MOLECULE
ZINC20420174_replica-1.pdb
 22 22 0 0 0
SMALL
GASTEIGER

@<TRIPOS>ATOM
      1  C7         8.9250   33.6070   59.0260 C.3     0  <0>0        0.1466
      2  C8         8.3050   32.2520   58.6740 C.3     0  <0>0        0.0311
      3  C6         8.1470   34.7060   58.3490 C.2     0  <0>0        0.2402
      4  N1         8.7560   35.5130   57.4580 N.am    0  <0>0       -0.3046
      5  H13        9.8210   35.3690   57.2240 H       0  <0>0        0.1494
      6  O1         6.9720   34.8640   58.6070 O.2     0  <0>0       -0.2733
      7  C4         7.9990   36.5800   56.8000 C.3     0  <0>0        0.0717
      8  C5         7.9740   36.3330   55.2900 C.3     0  <0>0        0.0213
      9  C3         8.6640   37.9270   57.0850 C.3     0  <0>0        0.0196
     10  C2         7.6590   38.8590   57.7660 C.3     0  <0>0        0.0017
     11  C1         7.5440   38.4910   59.2470 C.3     0  <0>0        0.0001
     12  N2         8.8840   33.8010   60.4770 N.pl3   0  <0>0       -0.3263
     13  H17        7.9160   33.9190   60.9880 H       0  <0>0        0.1472
     14  C9        10.0720   33.8360   61.2120 C.ar    0  <0>0        0.0565
     15  C14       10.7710   35.0290   61.3480 C.ar    0  <0>0        0.0716
     16  C13       11.9500   35.0600   62.0710 C.ar    0  <0>0        0.0249
     17 Cl         10.1690   36.4780   60.6050 Cl      0  <0>0       -0.0809
     18  C12       12.4290   33.9060   62.6630 C.ar    0  <0>0        0.0691
     19  C11       11.7320   32.7160   62.5340 C.ar    0  <0>0        0.0695
     20 Cl         13.9090   33.9480   63.5700 Cl      0  <0>0       -0.0813
     21  C10       10.5530   32.6800   61.8120 C.ar    0  <0>0        0.0274
     22 Cl         12.3380   31.2690   63.2790 Cl      0  <0>0       -0.0813
@<TRIPOS>BOND
     1     8     7    1
     2     7     9    1
     3     7     4    1
     4     9    10    1
     5     5     4    1
     6     4     3   am
     7    10    11    1
     8     3     6    2
     9     3     1    1
    10     2     1    1
    11     1    12    1
    12    12    13    1
    13    12    14    1
    14    17    15    1
    15    14    15   ar
    16    14    21   ar
    17    15    16   ar
    18    21    19   ar
    19    16    18   ar
    20    19    18   ar
    21    19    22    1
    22    18    20    1
