@<TRIPOS>MOLECULE
ZINC02727497_replica-1.pdb
 36 39 0 0 0
SMALL
GASTEIGER

@<TRIPOS>ATOM
      1  C15        5.2840   34.1480   58.1430 C.3     0  <0>0        0.0576
      2  C16        6.2000   33.0010   58.5750 C.3     0  <0>0        0.0291
      3  C17        7.2880   32.7360   57.5610 C.3     0  <0>0        0.0051
      4  C18        6.9430   31.5610   56.6490 C.3     0  <0>0        0.0050
      5  C19        6.7360   30.3160   57.5220 C.3     0  <0>0        0.0257
      6  C20        5.5840   30.5930   58.4530 C.2     0  <0>0       -0.0297
      7  C21        5.3450   31.8110   58.8960 C.2     0  <0>0       -0.0158
      8  C22        4.1340   32.0560   59.7230 C.2     0  <0>0        0.0749
      9  C23        3.6950   33.3280   59.8980 C.2     0  <0>0        0.0545
     10  C24        4.3790   34.5280   59.3160 C.3     0  <0>0        0.1921
     11  C25        5.1920   35.1710   60.3620 C.1     0  <0>0        0.0913
     12  N1         5.8190   35.6670   61.1690 N.1     0  <0>0       -0.1945
     13  C26        3.3610   35.4820   58.8470 C.1     0  <0>0        0.0913
     14  N2         2.5760   36.2180   58.4860 N.1     0  <0>0       -0.1945
     15  C27        3.4390   30.9620   60.3310 C.1     0  <0>0        0.1011
     16  N4         2.8880   30.0930   60.8120 N.1     0  <0>0       -0.1908
     17  C5         6.1190   35.3380   57.7450 C.ar    0  <0>0       -0.0240
     18  C4         5.8570   36.0010   56.5600 C.ar    0  <0>0       -0.0261
     19  C3         6.6190   37.0960   56.1970 C.ar    0  <0>0       -0.0090
     20  C28        4.7410   35.5300   55.6650 C.3     0  <0>0        0.0307
     21  C2         7.6440   37.5270   57.0190 C.ar    0  <0>0       -0.0227
     22  C1         8.4740   38.7210   56.6240 C.3     0  <0>0        0.0308
     23  C7         7.9060   36.8640   58.2040 C.ar    0  <0>0        0.0169
     24  C6         7.1440   35.7700   58.5660 C.ar    0  <0>0       -0.0055
     25  C8         9.0220   37.3360   59.1000 C.3     0  <0>0        0.2317
     26  O1         8.8380   36.7990   60.4120 O.3     0  <0>0       -0.4707
     27  C9         9.9080   36.1840   60.9820 C.ar    0  <0>0        0.1392
     28  C14       10.3420   34.9590   60.5000 C.ar    0  <0>0        0.0392
     29  C13       11.4300   34.3350   61.0810 C.ar    0  <0>0        0.0327
     30  C12       12.0860   34.9330   62.1430 C.ar    0  <0>0        0.1403
     31  C11       11.6530   36.1560   62.6250 C.ar    0  <0>0        0.0327
     32  F1        13.1490   34.3220   62.7100 F       0  <0>0       -0.2042
     33  C10       10.5690   36.7860   62.0430 C.ar    0  <0>0        0.0392
     34  N3         2.5660   33.5260   60.6420 N.pl3   0  <0>0       -0.3582
     35  H21        2.6460   33.7030   61.7250 H       0  <0>0        0.1421
     36  H22        1.5770   33.5070   60.1590 H       0  <0>0        0.1421
@<TRIPOS>BOND
     1    20    18    1
     2    19    18   ar
     3    19    21   ar
     4    18    17   ar
     5    22    21    1
     6     4     5    1
     7     4     3    1
     8    21    23   ar
     9     5     6    1
    10     3     2    1
    11    17     1    1
    12    17    24   ar
    13     1     2    1
    14     1    10    1
    15    23    24   ar
    16    23    25    1
    17     6     7    2
    18    14    13    3
    19     2     7    1
    20    13    10    1
    21     7     8    1
    22    25    26    1
    23    10     9    1
    24    10    11    1
    25     8     9    2
    26     8    15    1
    27     9    34    1
    28    36    34    1
    29    15    16    3
    30    11    12    3
    31    26    27    1
    32    28    27   ar
    33    28    29   ar
    34    34    35    1
    35    27    33   ar
    36    29    30   ar
    37    33    31   ar
    38    30    31   ar
    39    30    32    1
