@<TRIPOS>MOLECULE
ZINC49885334_replica-1.pdb
 23 24 0 0 0
SMALL
GASTEIGER

@<TRIPOS>ATOM
      1  C10       -2.4910   30.7740   55.1900 C.3     0  <0>0        0.0550
      2  C9        -2.2580   30.2530   53.7700 C.3     0  <0>0        0.0899
      3  N1        -0.9750   29.5460   53.7140 N.pl3   0  <0>0       -0.3328
      4  H11       -0.1810   29.9530   54.0950 H       0  <0>0        0.1468
      5  C5        -0.8960   28.2870   53.1150 C.ar    0  <0>0        0.0406
      6  C4        -1.5660   28.0410   51.9220 C.ar    0  <0>0        0.0137
      7  C3        -1.4860   26.7950   51.3320 C.ar    0  <0>0       -0.0030
      8  C2        -0.7390   25.7940   51.9240 C.ar    0  <0>0       -0.0221
      9  C1        -0.6540   24.4360   51.2760 C.3     0  <0>0        0.0310
     10  C7        -0.0760   26.0340   53.1130 C.ar    0  <0>0       -0.0073
     11  C6        -0.1480   27.2790   53.7070 C.ar    0  <0>0       -0.0091
     12  C8         0.5820   27.5410   55.0000 C.3     0  <0>0        0.0323
     13  C11       -1.1600   30.8120   55.9430 C.3     0  <0>0        0.1344
     14  C12       -1.2430   29.9170   57.1530 C.ar    0  <0>0        0.0041
     15  C17       -2.0940   28.8280   57.1500 C.ar    0  <0>0       -0.0040
     16  C16       -2.1690   28.0040   58.2570 C.ar    0  <0>0        0.0054
     17  C15       -1.3960   28.2750   59.3730 C.ar    0  <0>0        0.1361
     18  C18       -3.0930   26.8150   58.2510 C.3     0  <0>0        0.0334
     19  C14       -0.5460   29.3690   59.3780 C.ar    0  <0>0        0.0291
     20  F1        -1.4700   27.4730   60.4580 F       0  <0>0       -0.2045
     21  C13       -0.4700   30.1880   58.2670 C.ar    0  <0>0        0.0003
     22  O1        -0.8860   32.1510   56.3590 O.3     0  <0>0       -0.3800
     23  H22       -1.1310   32.8230   55.7070 H       0  <0>0        0.2108
@<TRIPOS>BOND
     1     9     8    1
     2     7     6   ar
     3     7     8   ar
     4     6     5   ar
     5     8    10   ar
     6    10    11   ar
     7     5    11   ar
     8     5     3    1
     9    11    12    1
    10     3     2    1
    11     3     4    1
    12     2     1    1
    13     1    13    1
    14    23    22    1
    15    13    22    1
    16    13    14    1
    17    15    14   ar
    18    15    16   ar
    19    14    21   ar
    20    18    16    1
    21    16    17   ar
    22    21    19   ar
    23    17    19   ar
    24    17    20    1
