@<TRIPOS>MOLECULE
ZINC09795375_replica-1.pdb
 19 21 0 0 0
SMALL
GASTEIGER

@<TRIPOS>ATOM
      1  S1        -2.6100   29.7110   54.8610 S.3     0  <0>0       -0.0705
      2  C6        -2.3160   29.0850   56.4810 C.ar    0  <0>0        0.1974
      3  N1        -1.4320   29.5830   57.3920 N.ar    0  <0>0       -0.2676
      4  C3        -0.5510   30.6290   57.3820 C.ar    0  <0>0        0.0834
      5  C4        -1.5470   28.7790   58.5060 C.ar    0  <0>0        0.1708
      6  C2         0.2150   30.8870   58.4600 C.ar    0  <0>0        0.0192
      7  C1         0.1190   30.0850   59.6110 C.ar    0  <0>0        0.0047
      8  C5        -0.7510   29.0410   59.6390 C.ar    0  <0>0        0.0393
      9  N2        -2.4610   27.8670   58.2280 N.ar    0  <0>0       -0.1279
     10  N3        -2.9100   28.0520   57.0360 N.ar    0  <0>0       -0.1218
     11  C7        -1.0010   29.5680   54.0350 C.3     0  <0>0        0.0918
     12  C8        -0.9780   28.3190   53.1910 C.ar    0  <0>0       -0.0045
     13  C13       -0.3120   27.1940   53.6420 C.ar    0  <0>0        0.0337
     14  C12       -0.2950   26.0460   52.8710 C.ar    0  <0>0        0.0360
     15 Br          0.5690   27.2220   55.3150 Br      0  <0>0       -0.0492
     16  C11       -0.9350   26.0280   51.6440 C.ar    0  <0>0        0.1406
     17  C10       -1.5980   27.1560   51.1930 C.ar    0  <0>0        0.0294
     18  F1        -0.9150   24.9080   50.8880 F       0  <0>0       -0.2042
     19  C9        -1.6190   28.3010   51.9660 C.ar    0  <0>0       -0.0006
@<TRIPOS>BOND
     1    18    16    1
     2    17    16   ar
     3    17    19   ar
     4    16    14   ar
     5    19    12   ar
     6    14    13   ar
     7    12    13   ar
     8    12    11    1
     9    13    15    1
    10    11     1    1
    11     1     2    1
    12     2    10   ar
    13     2     3   ar
    14    10     9   ar
    15     4     3   ar
    16     4     6   ar
    17     3     5   ar
    18     9     5   ar
    19     6     7   ar
    20     5     8   ar
    21     7     8   ar
