@<TRIPOS>MOLECULE
ZINC35587219_replica-1.pdb
 24 25 0 0 0
SMALL
GASTEIGER

@<TRIPOS>ATOM
      1  C9         0.4220   31.8180   55.9150 C.2     0  <0>0        0.1313
      2  S1         0.6510   30.8080   57.2780 S.2     0  <0>0       -0.0189
      3  N2         0.1570   31.2750   54.7100 N.am    0  <0>0       -0.3158
      4  H17        0.0260   31.8470   53.9380 H       0  <0>0        0.1485
      5  N1         0.5080   33.1570   56.0470 N.am    0  <0>0       -0.3177
      6  H16        0.0390   33.7360   55.4260 H       0  <0>0        0.1484
      7  C6         1.3090   33.7370   57.1280 C.3     0  <0>0        0.0705
      8  C5         0.4000   34.5370   58.0630 C.3     0  <0>0        0.0195
      9  C4         1.2360   35.1420   59.1920 C.3     0  <0>0        0.0017
     10  C3         2.3010   36.0680   58.5990 C.3     0  <0>0        0.0001
     11  C2         3.2090   35.2670   57.6650 C.3     0  <0>0        0.0016
     12  C1         3.8900   34.1460   58.4530 C.3     0  <0>0        0.0001
     13  C7         2.3720   34.6610   56.5350 C.3     0  <0>0        0.0180
     14  C8         3.2820   33.8600   55.6000 C.3     0  <0>0        0.0017
     15  C10        0.0630   29.8200   54.5670 C.3     0  <0>0        0.0931
     16  C11       -1.1780   29.4670   53.7440 C.3     0  <0>0        0.0475
     17  C12       -0.9750   28.1320   53.0770 C.ar    0  <0>0       -0.0203
     18  C17       -0.2080   27.1600   53.6960 C.ar    0  <0>0       -0.0011
     19  C16       -0.0260   25.9330   53.0880 C.ar    0  <0>0        0.0366
     20  C15       -0.6040   25.6790   51.8530 C.ar    0  <0>0        0.1387
     21  C14       -1.3680   26.6560   51.2320 C.ar    0  <0>0        0.0366
     22  C13       -1.5520   27.8800   51.8460 C.ar    0  <0>0       -0.0011
     23  O1        -0.4220   24.4730   51.2520 O.3     0  <0>0       -0.4714
     24  C18       -0.3440   23.3290   52.1040 C.3     0  <0>0        0.2525
@<TRIPOS>BOND
     1    21    22   ar
     2    21    20   ar
     3    23    20    1
     4    23    24    1
     5    22    17   ar
     6    20    19   ar
     7    17    18   ar
     8    17    16    1
     9    19    18   ar
    10    16    15    1
    11     4     3    1
    12    15     3    1
    13     3     1    1
    14     6     5    1
    15    14    13    1
    16     1     5    1
    17     1     2    2
    18     5     7    1
    19    13     7    1
    20    13    11    1
    21     7     8    1
    22    11    12    1
    23    11    10    1
    24     8     9    1
    25    10     9    1
