@<TRIPOS>MOLECULE
ZINC43123516_replica-1.pdb
 27 30 0 0 0
SMALL
GASTEIGER

@<TRIPOS>ATOM
      1  C1         0.8280   35.7050   57.2880 C.3     0  <0>0        0.0664
      2  C2         1.5340   34.8760   58.3280 C.2     0  <0>0        0.1086
      3  C3         0.8270   33.8710   58.9730 C.2     0  <0>0        0.0209
      4  C4         1.4660   33.0940   59.9380 C.2     0  <0>0       -0.0167
      5  C5         2.8710   33.3930   60.2140 C.3     0  <0>0        0.0968
      6  C6         3.6020   32.6700   61.1640 C.2     0  <0>0       -0.0151
      7  C7         4.9110   32.9820   61.3890 C.2     0  <0>0       -0.0007
      8  C8         5.5300   34.0120   60.6870 C.2     0  <0>0        0.0389
      9  C9         4.8460   34.7370   59.7520 C.2     0  <0>0        0.1648
     10  C10        3.4920   34.4410   59.4950 C.2     0  <0>0        0.1496
     11  N1         2.7950   35.1270   58.5840 N.2     0  <0>0       -0.4069
     12  O1         5.4670   35.7390   59.0770 O.2     0  <0>0       -0.4683
     13  C11        6.6310   35.3890   58.3250 C.3     0  <0>0        0.2339
     14  C12        7.1270   36.6000   57.5770 C.ar    0  <0>0        0.0454
     15  C16        6.5500   36.9770   56.3730 C.ar    0  <0>0        0.0771
     16  C15        7.0290   38.0980   55.7180 C.ar    0  <0>0        0.1101
     17 Cl          5.2410   36.0580   55.7000 Cl      0  <0>0       -0.0808
     18  N2         8.0270   38.7980   56.2200 N.ar    0  <0>0       -0.2406
     19  C14        8.6030   38.4660   57.3580 C.ar    0  <0>0        0.1101
     20  C13        8.1750   37.3630   58.0730 C.ar    0  <0>0        0.0771
     21 Cl          8.9390   36.9350   59.5730 Cl      0  <0>0       -0.0808
     22  C17        0.7550   32.0160   60.6500 C.3     0  <0>0        0.1039
     23  S1         0.5550   30.2970   60.2120 S.3     0  <0>0       -0.1052
     24  C19       -0.3580   29.8230   61.5440 C.3     0  <0>0        0.1828
     25  N3        -0.4820   30.9300   62.2360 N.2     0  <0>0       -0.2658
     26  C18        0.0570   32.0570   61.8330 C.2     0  <0>0        0.0464
     27  C20       -0.0830   33.3300   62.6280 C.3     0  <0>0        0.0481
@<TRIPOS>BOND
     1    17    15    1
     2    16    18   ar
     3    16    15   ar
     4    18    19   ar
     5    15    14   ar
     6     1     2    1
     7    19    20   ar
     8    14    20   ar
     9    14    13    1
    10    20    21    1
    11    13    12    1
    12     2    11    2
    13     2     3    1
    14    11    10    2
    15     3     4    2
    16    12     9    1
    17    10     9    1
    18    10     5    1
    19     9     8    2
    20     4     5    1
    21     4    22    1
    22    23    22    1
    23    23    24    1
    24     5     6    1
    25    22    26    1
    26     8     7    1
    27     6     7    2
    28    24    25    1
    29    26    25    2
    30    26    27    1
