@<TRIPOS>MOLECULE
ZINC36919591_replica-1.pdb
 21 22 0 0 0
SMALL
GASTEIGER

@<TRIPOS>ATOM
      1  N1         0.2830   29.1620   55.2640 N.pl3   0  <0>0       -0.3306
      2  H12        0.8420   28.3910   55.4470 H       0  <0>0        0.1471
      3  C3        -0.6190   29.1580   54.1100 C.3     0  <0>0        0.0919
      4  C2        -2.0500   29.4270   54.5800 C.3     0  <0>0        0.0241
      5  C1        -2.6580   30.5530   53.7410 C.3     0  <0>0        0.0021
      6  C4        -0.5580   27.8140   53.4300 C.ar    0  <0>0       -0.0046
      7  C9         0.1090   26.7630   54.0330 C.ar    0  <0>0       -0.0027
      8  C8         0.1600   25.5300   53.4120 C.ar    0  <0>0       -0.0003
      9  C7        -0.4480   25.3490   52.1830 C.ar    0  <0>0       -0.0000
     10  C6        -1.1110   26.4000   51.5790 C.ar    0  <0>0       -0.0003
     11  C5        -1.1660   27.6330   52.2020 C.ar    0  <0>0       -0.0027
     12  C10        0.3360   30.2800   56.1060 C.ar    0  <0>0        0.0449
     13  C15        0.6370   31.5310   55.5810 C.ar    0  <0>0        0.0148
     14  C14        0.6850   32.6330   56.4110 C.ar    0  <0>0        0.0076
     15  C13        0.4420   32.4910   57.7710 C.ar    0  <0>0        0.0303
     16  C12        0.1460   31.2390   58.2970 C.ar    0  <0>0        0.0076
     17  C11        0.0940   30.1370   57.4660 C.ar    0  <0>0        0.0148
     18  S1         0.5090   33.8970   58.8310 S.3     0  <0>0       -0.0442
     19  C16        1.1280   35.2240   57.7600 C.3     0  <0>0        0.3707
     20  F1         0.0530   35.8420   57.1140 F       0  <0>0       -0.1852
     21  F2         1.8130   36.1660   58.5340 F       0  <0>0       -0.1852
@<TRIPOS>BOND
     1    10     9   ar
     2    10    11   ar
     3     9     8   ar
     4    11     6   ar
     5     8     7   ar
     6     6     7   ar
     7     6     3    1
     8     5     4    1
     9     3     4    1
    10     3     1    1
    11     1     2    1
    12     1    12    1
    13    13    12   ar
    14    13    14   ar
    15    12    17   ar
    16    14    15   ar
    17    20    19    1
    18    17    16   ar
    19    19    21    1
    20    19    18    1
    21    15    16   ar
    22    15    18    1
