@<TRIPOS>MOLECULE
ZINC13415728_replica-1.pdb
 26 27 0 0 0
SMALL
GASTEIGER

@<TRIPOS>ATOM
      1  C3         7.6470   36.3540   58.4340 C.2     0  <0>0        0.2362
      2  O1         7.2570   35.3660   59.0190 O.2     0  <0>0       -0.2739
      3  N1         8.8310   36.9090   58.7650 N.am    0  <0>0       -0.2832
      4  H5         9.1090   37.7420   58.3520 H       0  <0>0        0.1549
      5  C2         6.8100   36.9630   57.3390 C.3     0  <0>0        0.1312
      6  C1         7.4100   38.3090   56.9270 C.3     0  <0>0        0.0218
      7  S1         6.7850   35.8510   55.9110 S.3     0  <0>0       -0.0677
      8  C14        5.1410   35.2280   56.0390 C.2     0  <0>0        0.1828
      9  S2         4.5400   33.6470   55.6500 S.3     0  <0>0       -0.0688
     10  C16        2.8300   33.9330   56.0840 C.3     0  <0>0        0.1199
     11  C15        2.8850   35.2270   56.4840 C.2     0  <0>0        0.1106
     12  N2         4.0500   35.8470   56.4510 N.2     0  <0>0       -0.3965
     13  C17        1.6450   35.9410   56.9540 C.3     0  <0>0        0.1691
     14  C18        1.1180   35.2670   58.1950 C.2     0  <0>0        0.3716
     15  O2         1.6210   35.4970   59.2690 O.co2   0  <0>0       -0.2452
     16  O3         0.0880   34.4100   58.1070 O.co2   0  <0>0       -0.2452
     17  C4         9.6590   36.2830   59.7030 C.ar    0  <0>0        0.0503
     18  C9        10.1860   35.0270   59.4360 C.ar    0  <0>0        0.0143
     19  C8        11.0030   34.4110   60.3640 C.ar    0  <0>0       -0.0030
     20  C7        11.2960   35.0450   61.5580 C.ar    0  <0>0       -0.0227
     21  C6        10.7730   36.2960   61.8260 C.ar    0  <0>0       -0.0030
     22  C5         9.9550   36.9170   60.9020 C.ar    0  <0>0        0.0143
     23  C10       12.1890   34.3700   62.5670 C.3     0  <0>0        0.0189
     24  C11       11.6120   32.9970   62.9200 C.3     0  <0>0        0.0044
     25  C12       13.5890   34.1970   61.9750 C.3     0  <0>0        0.0044
     26  C13       12.2710   35.2290   63.8310 C.3     0  <0>0        0.0044
@<TRIPOS>BOND
     1     9     8    1
     2     9    10    1
     3     7     8    1
     4     7     5    1
     5     8    12    2
     6    10    11    1
     7    12    11    2
     8    11    13    1
     9     6     5    1
    10    13    14    1
    11     5     1    1
    12    16    14   ar
    13    14    15   ar
    14     4     3    1
    15     1     3   am
    16     1     2    2
    17     3    17    1
    18    18    17   ar
    19    18    19   ar
    20    17    22   ar
    21    19    20   ar
    22    22    21   ar
    23    20    21   ar
    24    20    23    1
    25    25    23    1
    26    23    24    1
    27    23    26    1
