@<TRIPOS>MOLECULE
ZINC37509196_replica-1.pdb
 22 23 0 0 0
SMALL
GASTEIGER

@<TRIPOS>ATOM
      1  C1         7.9990   36.7760   61.0920 C.3     0  <0>0        0.0261
      2  C2         9.3030   36.6570   60.3000 C.3     0  <0>0        0.0919
      3  C3        10.2880   35.8210   61.0760 C.ar    0  <0>0       -0.0046
      4  C8        11.1540   36.4230   61.9690 C.ar    0  <0>0       -0.0030
      5  C7        12.0540   35.6560   62.6830 C.ar    0  <0>0       -0.0045
      6  C6        12.0940   34.2860   62.4980 C.ar    0  <0>0       -0.0225
      7  C5        11.2320   33.6840   61.6010 C.ar    0  <0>0       -0.0045
      8  C4        10.3290   34.4510   60.8900 C.ar    0  <0>0       -0.0030
      9  C9        13.0790   33.4490   63.2750 C.3     0  <0>0        0.0224
     10  C10       12.7510   31.9670   63.0830 C.3     0  <0>0        0.0047
     11  C11       14.4950   33.7290   62.7700 C.3     0  <0>0        0.0047
     12  N1         9.0330   36.0210   59.0080 N.pl3   0  <0>0       -0.3296
     13  H16        9.2840   35.0960   58.8610 H       0  <0>0        0.1471
     14  C12        8.4140   36.7490   57.9850 C.ar    0  <0>0        0.0583
     15  C17        7.4420   36.1470   57.1860 C.ar    0  <0>0        0.0612
     16  C16        6.8290   36.8750   56.1790 C.ar    0  <0>0        0.0158
     17  C15        7.1890   38.1920   55.9600 C.ar    0  <0>0        0.0014
     18  C14        8.1570   38.7890   56.7480 C.ar    0  <0>0        0.0013
     19  C13        8.7690   38.0710   57.7590 C.ar    0  <0>0        0.0156
     20  N2         7.0830   34.8110   57.4060 N.pl3   0  <0>0       -0.3031
     21  C18        7.7810   33.7380   56.6930 C.3     0  <0>0        0.1123
     22  C19        6.0090   34.4870   58.3480 C.3     0  <0>0        0.1123
@<TRIPOS>BOND
     1    17    16   ar
     2    17    18   ar
     3    16    15   ar
     4    21    20    1
     5    18    19   ar
     6    15    20    1
     7    15    14   ar
     8    20    22    1
     9    19    14   ar
    10    14    12    1
    11    13    12    1
    12    12     2    1
    13     2     3    1
    14     2     1    1
    15     8     3   ar
    16     8     7   ar
    17     3     4   ar
    18     7     6   ar
    19     4     5   ar
    20     6     5   ar
    21     6     9    1
    22    11     9    1
    23    10     9    1
