@<TRIPOS>MOLECULE
ZINC21114589_replica-1.pdb
 23 25 0 0 0
SMALL
GASTEIGER

@<TRIPOS>ATOM
      1  C8         6.9000   36.8540   57.2710 C.2     0  <0>0        0.1793
      2  C9         6.9600   36.4020   55.9250 C.2     0  <0>0        0.2918
      3  O1         7.8850   36.7270   55.1990 O.2     0  <0>0       -0.2659
      4  N1         5.9710   35.6060   55.4670 N.am    0  <0>0       -0.1913
      5  H1         5.9920   35.2450   54.4280 H       0  <0>0        0.1784
      6  N2         5.0040   35.2670   56.2460 N.2     0  <0>0       -0.1128
      7  C10        4.9390   35.6860   57.4890 C.1     0  <0>0        0.1024
      8  N3         5.8840   36.4780   58.0110 N.2     0  <0>0       -0.3485
      9  C7         7.9780   37.7450   57.8340 C.3     0  <0>0        0.0910
     10  C6         8.8240   36.9590   58.8020 C.ar    0  <0>0       -0.0149
     11  C1         9.2620   35.6920   58.4660 C.ar    0  <0>0       -0.0030
     12  C2        10.0420   34.9720   59.3510 C.ar    0  <0>0        0.0111
     13  C3        10.3760   35.5170   60.5780 C.ar    0  <0>0        0.0577
     14  C4         9.9330   36.7830   60.9160 C.ar    0  <0>0        0.0111
     15 Cl         11.3510   34.6110   61.6940 Cl      0  <0>0       -0.0822
     16  C5         9.1570   37.5040   60.0280 C.ar    0  <0>0       -0.0030
     17  C11        3.7960   35.2670   58.3360 C.ar    0  <0>0        0.0753
     18  C16        3.9700   34.2880   59.3130 C.ar    0  <0>0        0.0116
     19  C15        2.9040   33.9020   60.0980 C.ar    0  <0>0        0.0074
     20  C14        1.6620   34.4850   59.9160 C.ar    0  <0>0        0.0346
     21  C13        1.4810   35.4550   58.9470 C.ar    0  <0>0        0.0074
     22 Br          0.2040   33.9500   60.9960 Br      0  <0>0       -0.0490
     23  C12        2.5430   35.8530   58.1610 C.ar    0  <0>0        0.0116
@<TRIPOS>BOND
     1     5     4    1
     2     3     2    2
     3     4     2   am
     4     4     6    1
     5     2     1    1
     6     6     7    2
     7     1     9    1
     8     1     8    2
     9     7     8    2
    10     7    17    1
    11     9    10    1
    12    23    17   ar
    13    23    21   ar
    14    17    18   ar
    15    11    10   ar
    16    11    12   ar
    17    10    16   ar
    18    21    20   ar
    19    18    19   ar
    20    12    13   ar
    21    20    19   ar
    22    20    22    1
    23    16    14   ar
    24    13    14   ar
    25    13    15    1
