@<TRIPOS>MOLECULE
ZINC03843543_replica-1.pdb
 29 33 0 0 0
SMALL
GASTEIGER

@<TRIPOS>ATOM
      1  C3         9.8640   36.0430   61.0690 C.3     0  <0>0        0.1728
      2  C4         8.7530   36.8850   61.6930 C.3     0  <0>0        0.0443
      3  C5         7.4050   36.5760   61.0440 C.3     0  <0>0        0.0074
      4  C6         7.4490   36.8500   59.5400 C.3     0  <0>0        0.0151
      5  C7         6.1220   36.5210   58.8930 C.3     0  <0>0        0.0038
      6  C8         5.3080   35.5030   59.6750 C.3     0  <0>0        0.0003
      7  C9         3.8990   35.3480   59.0700 C.3     0  <0>0        0.0002
      8  C10        4.0380   34.9130   57.6360 C.3     0  <0>0        0.0045
      9  C11        4.8990   35.9290   56.8580 C.3     0  <0>0        0.0005
     10  C12        6.2670   36.1400   57.4150 C.3     0  <0>0        0.0046
     11  C13        7.2430   34.9890   57.2470 C.3     0  <0>0        0.0254
     12  C14        8.5480   35.3360   57.9180 C.2     0  <0>0       -0.0345
     13  C15        8.6220   36.1320   58.9410 C.2     0  <0>0       -0.0455
     14  C16        9.9850   36.3590   59.5750 C.3     0  <0>0        0.0653
     15  C17        4.6990   35.3390   55.4540 C.3     0  <0>0        0.0002
     16  C18        3.1930   35.0480   55.5070 C.3     0  <0>0        0.0048
     17  C19        2.8060   34.8880   56.7660 C.3     0  <0>0        0.0516
     18  C24        4.5840   33.4870   57.5920 C.3     0  <0>0        0.0002
     19  C25        7.6770   38.3570   59.3440 C.3     0  <0>0        0.0040
     20  C20        1.3920   34.7120   57.2570 C.3     0  <0>0        0.1872
     21  O4         0.8190   33.5400   56.6630 O.3     0  <0>0       -0.3316
     22  C22        0.4460   32.6530   57.7360 C.3     0  <0>0        0.1767
     23  C21        0.3320   33.6050   58.9530 C.3     0  <0>0        0.1767
     24  O3         1.3920   34.5530   58.6860 O.3     0  <0>0       -0.3316
     25  C23        0.5590   35.9390   56.8800 C.3     0  <0>0        0.0612
     26  O2         9.5620   34.6330   61.2430 O.3     0  <0>0       -0.4519
     27  C2        10.5880   33.8230   61.5490 C.2     0  <0>0        0.3174
     28  C1        11.9470   34.4050   61.8380 C.3     0  <0>0        0.1212
     29  O1        10.4210   32.6270   61.5920 O.2     0  <0>0       -0.2501
@<TRIPOS>BOND
     1    15    16    1
     2    15     9    1
     3    16    17    1
     4    21    20    1
     5    21    22    1
     6    17    20    1
     7    17     8    1
     8     9    10    1
     9     9     8    1
    10    25    20    1
    11    11    10    1
    12    11    12    1
    13    20    24    1
    14    10     5    1
    15    18     8    1
    16     8     7    1
    17    22    23    1
    18    12    13    2
    19    24    23    1
    20     5     4    1
    21     5     6    1
    22    13     4    1
    23    13    14    1
    24     7     6    1
    25    19     4    1
    26     4     3    1
    27    14     1    1
    28     3     2    1
    29     1    26    1
    30     1     2    1
    31    26    27    1
    32    27    29    2
    33    27    28    1
