@<TRIPOS>MOLECULE
ZINC57358954_replica-1.pdb
 27 30 0 0 0
SMALL
GASTEIGER

@<TRIPOS>ATOM
      1  C1        -1.2760   27.6580   59.6420 C.2     0  <0>0       -0.0038
      2  C2        -0.8700   28.5210   60.6570 C.2     0  <0>0        0.0020
      3  C3        -0.3580   29.7500   60.3710 C.2     0  <0>0        0.0282
      4  C4        -0.2350   30.1600   59.0300 C.2     0  <0>0        0.1170
      5  C5        -0.6510   29.2770   58.0020 C.3     0  <0>0        0.1010
      6  C6        -1.1720   28.0210   58.3320 C.2     0  <0>0       -0.0149
      7  C7        -0.5210   29.7090   56.6090 C.2     0  <0>0        0.0445
      8  C8         0.0070   30.9700   56.3790 C.2     0  <0>0        0.0361
      9  C9         0.3880   31.7680   57.4720 C.2     0  <0>0        0.1652
     10  N1         0.2630   31.3580   58.7200 N.2     0  <0>0       -0.4025
     11  C14       -0.9360   28.8330   55.4920 C.2     0  <0>0        0.2464
     12  O2        -2.0920   28.4660   55.4040 O.2     0  <0>0       -0.2701
     13  N2        -0.0320   28.4430   54.5710 N.am    0  <0>0       -0.2771
     14  H9         0.8950   28.7140   54.6560 H       0  <0>0        0.1553
     15  C15       -0.4320   27.6450   53.4920 C.ar    0  <0>0        0.1061
     16  C20       -1.2220   28.1820   52.4830 C.ar    0  <0>0        0.1557
     17  C19       -1.6090   27.3920   51.4150 C.ar    0  <0>0        0.0311
     18  F1        -1.6070   29.4750   52.5410 F       0  <0>0       -0.2028
     19  C18       -1.2210   26.0650   51.3580 C.ar    0  <0>0        0.0047
     20  C17       -0.4410   25.5260   52.3630 C.ar    0  <0>0        0.0311
     21  C16       -0.0440   26.3110   53.4310 C.ar    0  <0>0        0.1557
     22  F2         0.7200   25.7830   54.4120 F       0  <0>0       -0.2028
     23  C10        0.9480   33.1080   57.2150 C.ar    0  <0>0        0.1748
     24  O1         2.0450   33.3790   56.4810 O.2     0  <0>0       -0.4478
     25  C13        2.2540   34.7040   56.4630 C.ar    0  <0>0        0.1797
     26  C12        1.2940   35.3030   57.1970 C.ar    0  <0>0        0.0439
     27  C11        0.4520   34.2850   57.6840 C.ar    0  <0>0        0.0434
@<TRIPOS>BOND
     1    19    17   ar
     2    19    20   ar
     3    17    16   ar
     4    20    21   ar
     5    16    18    1
     6    16    15   ar
     7    21    15   ar
     8    21    22    1
     9    15    13    1
    10    13    14    1
    11    13    11   am
    12    12    11    2
    13    11     7    1
    14     8     7    2
    15     8     9    1
    16    25    24   ar
    17    25    26   ar
    18    24    23   ar
    19     7     5    1
    20    26    27   ar
    21    23     9    1
    22    23    27   ar
    23     9    10    2
    24     5     6    1
    25     5     4    1
    26     6     1    2
    27    10     4    2
    28     4     3    1
    29     1     2    1
    30     3     2    2
