@<TRIPOS>MOLECULE
ZINC44592975_replica-1.pdb
 22 25 0 0 0
SMALL
GASTEIGER

@<TRIPOS>ATOM
      1  C7        11.3610   34.6080   61.5830 C.1     0  <0>0        0.1269
      2  N1        10.5170   34.2160   60.6110 N.2     0  <0>0       -0.3109
      3  C8         9.7890   35.2240   60.2200 C.2     0  <0>0        0.3119
      4  O1        10.1410   36.3020   60.9300 O.2     0  <0>0       -0.3138
      5  N2        11.1650   35.8810   61.8190 N.2     0  <0>0       -0.0072
      6  C9         8.7290   35.1810   59.1500 C.3     0  <0>0        0.1709
      7  N3         9.1190   34.2220   58.1090 N.3     0  <0>0       -0.2864
      8  C15        8.1930   34.2420   56.9660 C.3     0  <0>0        0.0744
      9  H12       10.0680   34.3830   57.8060 H       0  <0>0        0.1240
     10  C14        8.3980   35.5480   56.1800 C.3     0  <0>0        0.0498
     11  C13        8.4400   36.6710   57.1660 C.ar    0  <0>0        0.0065
     12  C10        8.5840   36.5610   58.5160 C.ar    0  <0>0        0.0047
     13  S1         8.3150   38.4150   56.8920 S.2     0  <0>0       -0.0910
     14  C11        8.5920   37.7530   59.2390 C.ar    0  <0>0        0.0047
     15  C12        8.4600   38.9360   58.5950 C.ar    0  <0>0        0.0348
     16  C3        12.3450   33.7400   62.2750 C.ar    0  <0>0        0.0775
     17  C2        13.6730   34.1450   62.3910 C.ar    0  <0>0        0.0111
     18  C1        14.5860   33.3350   63.0370 C.ar    0  <0>0        0.0012
     19  C6        14.1840   32.1230   63.5680 C.ar    0  <0>0        0.0067
     20  C5        12.8660   31.7150   63.4560 C.ar    0  <0>0        0.0353
     21  C4        11.9450   32.5180   62.8120 C.ar    0  <0>0        0.0178
     22 Br         12.3250   30.0560   64.1860 Br      0  <0>0       -0.0490
@<TRIPOS>BOND
     1    10     8    1
     2    10    11    1
     3    13    11   ar
     4    13    15   ar
     5     8     7    1
     6    11    12   ar
     7     9     7    1
     8     7     6    1
     9    12     6    1
    10    12    14   ar
    11    15    14   ar
    12     6     3    1
    13     3     2    2
    14     3     4    1
    15     2     1    2
    16     4     5    1
    17     1     5    2
    18     1    16    1
    19    16    17   ar
    20    16    21   ar
    21    17    18   ar
    22    21    20   ar
    23    18    19   ar
    24    20    19   ar
    25    20    22    1
