@<TRIPOS>MOLECULE
ZINC02325028_replica-1.pdb
 23 25 0 0 0
SMALL
GASTEIGER

@<TRIPOS>ATOM
      1  C7         7.0180   35.0030   57.3980 C.ar    0  <0>0        0.1848
      2  N1         5.9950   34.6290   56.6810 N.ar    0  <0>0       -0.1515
      3  N2         5.9580   33.2270   56.6760 N.ar    0  <0>0       -0.2525
      4  H1         5.1640   32.7010   56.1260 H       0  <0>0        0.1911
      5  C8         6.9990   32.7910   57.4130 C.ar    0  <0>0        0.1968
      6  S1         7.4070   31.1560   57.7160 S.2     0  <0>0       -0.0097
      7  N3         7.6580   33.8730   57.8710 N.ar    0  <0>0       -0.1874
      8  N4         8.8030   33.8560   58.6800 N.2     0  <0>0       -0.1604
      9  C9         8.6820   33.8370   59.9730 C.2     0  <0>0        0.1206
     10  C10        9.8850   33.8200   60.8260 C.ar    0  <0>0        0.0218
     11  C15       10.1630   32.7070   61.6230 C.ar    0  <0>0        0.0139
     12  C14       11.2870   32.7010   62.4240 C.ar    0  <0>0        0.0682
     13  C13       12.1440   33.7900   62.4290 C.ar    0  <0>0        0.0682
     14 Cl         11.6320   31.3220   63.4210 Cl      0  <0>0       -0.0814
     15  C12       11.8750   34.8930   61.6350 C.ar    0  <0>0        0.0123
     16 Cl         13.5600   33.7710   63.4330 Cl      0  <0>0       -0.0814
     17  C11       10.7530   34.9150   60.8360 C.ar    0  <0>0        0.0025
     18  C4         7.4230   36.4010   57.6640 C.ar    0  <0>0        0.0376
     19  C3         7.0150   37.0370   58.8360 C.ar    0  <0>0        0.0031
     20  C2         7.3950   38.3410   59.0770 C.ar    0  <0>0        0.0001
     21  C1         8.1810   39.0170   58.1610 C.ar    0  <0>0        0.0000
     22  C6         8.5890   38.3920   56.9970 C.ar    0  <0>0        0.0001
     23  C5         8.2200   37.0860   56.7450 C.ar    0  <0>0        0.0031
@<TRIPOS>BOND
     1     4     3    1
     2     3     2   ar
     3     3     5   ar
     4     2     1   ar
     5    23    22   ar
     6    23    18   ar
     7    22    21   ar
     8     1    18    1
     9     1     7   ar
    10     5     6    2
    11     5     7   ar
    12    18    19   ar
    13     7     8    1
    14    21    20   ar
    15     8     9    2
    16    19    20   ar
    17     9    10    1
    18    10    17   ar
    19    10    11   ar
    20    17    15   ar
    21    11    12   ar
    22    15    13   ar
    23    12    13   ar
    24    12    14    1
    25    13    16    1
