@<TRIPOS>MOLECULE
ZINC04667906_replica-1.pdb
 25 28 0 0 0
SMALL
GASTEIGER

@<TRIPOS>ATOM
      1  C1         9.8840   35.1080   58.9950 C.3     0  <0>0        0.0073
      2  C2         9.7040   34.7190   60.4630 C.3     0  <0>0        0.0515
      3  C3         9.1700   33.3050   60.5470 C.3     0  <0>0        0.0073
      4  C4         7.8740   33.2450   59.7140 C.3     0  <0>0        0.0048
      5  C5         6.8690   34.2840   60.1950 C.3     0  <0>0        0.0220
      6  C6         5.5970   34.2570   59.3990 C.ar    0  <0>0       -0.0263
      7  C7         5.1460   33.0350   58.9200 C.ar    0  <0>0       -0.0015
      8  C8         3.9700   32.9510   58.2040 C.ar    0  <0>0        0.0372
      9  C9         3.2320   34.1000   57.9590 C.ar    0  <0>0        0.1471
     10  C10        3.6890   35.3210   58.4260 C.ar    0  <0>0        0.0330
     11  C11        4.8710   35.4040   59.1490 C.ar    0  <0>0       -0.0231
     12  C12        5.3080   36.7670   59.6190 C.3     0  <0>0        0.0261
     13  C13        6.3890   36.6610   60.6940 C.3     0  <0>0        0.0050
     14  C14        7.4660   35.6970   60.1960 C.3     0  <0>0        0.0048
     15  C15        8.6650   35.6690   61.1220 C.3     0  <0>0        0.0073
     16  C16        9.4730   36.9700   61.2100 C.3     0  <0>0        0.0082
     17  C17       10.8760   36.4670   61.6460 C.3     0  <0>0        0.0645
     18  C18       10.9710   35.0080   61.2120 C.2     0  <0>0        0.1498
     19  O1        11.8800   34.2430   61.4250 O.2     0  <0>0       -0.2961
     20  O2         2.0710   34.0290   57.2580 O.3     0  <0>0       -0.4340
     21  C19        1.0850   33.2730   57.7820 C.2     0  <0>0        0.2375
     22  S1         0.4300   33.6650   59.3150 S.2     0  <0>0        0.0064
     23  N1         0.6200   32.2060   57.1030 N.am    0  <0>0       -0.2703
     24  C20       -0.4470   31.3820   57.6760 C.3     0  <0>0        0.1156
     25  C21        1.1810   31.8710   55.7920 C.3     0  <0>0        0.1156
@<TRIPOS>BOND
     1    25    23    1
     2    23    24    1
     3    23    21    1
     4    20    21    1
     5    20     9    1
     6    21    22    2
     7     9     8   ar
     8     9    10   ar
     9     8     7   ar
    10    10    11   ar
    11     7     6   ar
    12     1     2    1
    13    11     6   ar
    14    11    12    1
    15     6     5    1
    16    12    13    1
    17     4     5    1
    18     4     3    1
    19     5    14    1
    20    14    13    1
    21    14    15    1
    22     2     3    1
    23     2    15    1
    24     2    18    1
    25    15    16    1
    26    16    17    1
    27    18    19    2
    28    18    17    1
