@<TRIPOS>MOLECULE
ZINC04064384_replica-1.pdb
 36 40 0 0 0
SMALL
GASTEIGER

@<TRIPOS>ATOM
      1  C10        0.7000   32.3470   59.1460 C.3     0  <0>0        0.1186
      2  C11        0.5140   31.5650   57.8670 C.2     0  <0>0        0.0436
      3  C12        0.3640   32.0890   56.6380 C.2     0  <0>0        0.0262
      4  C13        0.2070   31.1810   55.4290 C.3     0  <0>0        0.0458
      5  C14       -0.5270   29.9020   55.8290 C.3     0  <0>0        0.0356
      6  C15        0.3030   29.2060   56.9140 C.3     0  <0>0        0.0736
      7  C16        0.5040   30.1630   58.0510 C.2     0  <0>0        0.1722
      8  O2         0.6660   29.7170   59.1700 O.2     0  <0>0       -0.2916
      9  N1         0.3390   33.4160   56.3560 N.pl3   0  <0>0       -0.3150
     10  C24        1.2460   34.3470   56.8480 C.ar    0  <0>0        0.0614
     11  C25        2.1160   35.0380   56.0220 C.ar    0  <0>0        0.0158
     12  C26        2.9640   35.9850   56.5710 C.ar    0  <0>0        0.0014
     13  C27        2.9410   36.2390   57.9310 C.ar    0  <0>0        0.0013
     14  C28        2.0830   35.5360   58.7590 C.ar    0  <0>0        0.0156
     15  C29        1.2480   34.5730   58.2150 C.ar    0  <0>0        0.0586
     16  N2         0.4470   33.7660   59.0220 N.pl3   0  <0>0       -0.3262
     17  H25       -0.3630   33.7380   55.7700 H       0  <0>0        0.1520
     18  H30       -0.2920   34.1630   59.5090 H       0  <0>0        0.1474
     19  C7         2.1160   32.1540   59.6220 C.ar    0  <0>0       -0.0001
     20  C6         3.0950   31.7510   58.7310 C.ar    0  <0>0        0.0008
     21  C5         4.3940   31.5740   59.1650 C.ar    0  <0>0        0.0366
     22  C4         4.7170   31.8000   60.4950 C.ar    0  <0>0        0.1385
     23  C9         3.7340   32.2040   61.3860 C.ar    0  <0>0        0.0366
     24  C8         2.4380   32.3850   60.9460 C.ar    0  <0>0        0.0008
     25  O1         5.9950   31.6250   60.9240 O.3     0  <0>0       -0.4755
     26  C3         6.1870   30.7850   62.0630 C.3     0  <0>0        0.2054
     27  C2         6.1250   29.3180   61.6320 C.3     0  <0>0        0.0473
     28  C1         6.1720   28.4200   62.8690 C.3     0  <0>0        0.0040
     29  C17       -0.6670   28.9960   54.6330 C.ar    0  <0>0       -0.0215
     30  C22       -1.4530   29.3840   53.5640 C.ar    0  <0>0       -0.0011
     31  C21       -1.5840   28.5550   52.4660 C.ar    0  <0>0        0.0366
     32  C20       -0.9240   27.3350   52.4370 C.ar    0  <0>0        0.1387
     33  C19       -0.1360   26.9490   53.5120 C.ar    0  <0>0        0.0366
     34  C18       -0.0100   27.7810   54.6070 C.ar    0  <0>0       -0.0011
     35  O3        -1.0500   26.5190   51.3570 O.3     0  <0>0       -0.4714
     36  C23       -0.8080   25.1260   51.5650 C.3     0  <0>0        0.2525
@<TRIPOS>BOND
     1    35    36    1
     2    35    32    1
     3    32    31   ar
     4    32    33   ar
     5    31    30   ar
     6    33    34   ar
     7    30    29   ar
     8    34    29   ar
     9    29     5    1
    10     4     5    1
    11     4     3    1
    12    17     9    1
    13     5     6    1
    14    11    12   ar
    15    11    10   ar
    16     9     3    1
    17     9    10    1
    18    12    13   ar
    19     3     2    2
    20    10    15   ar
    21     6     7    1
    22     2     7    1
    23     2     1    1
    24    13    14   ar
    25     7     8    2
    26    15    14   ar
    27    15    16    1
    28    20    21   ar
    29    20    19   ar
    30    16     1    1
    31    16    18    1
    32     1    19    1
    33    21    22   ar
    34    19    24   ar
    35    22    25    1
    36    22    23   ar
    37    25    26    1
    38    24    23   ar
    39    27    26    1
    40    27    28    1
