@<TRIPOS>MOLECULE
ZINC05559993_replica-1.pdb
 26 28 0 0 0
SMALL
GASTEIGER

@<TRIPOS>ATOM
      1  C7         0.0670   28.3570   54.8710 C.3     0  <0>0        0.0874
      2  C4        -0.8650   27.9930   55.9970 C.ar    0  <0>0       -0.0127
      3  C3        -2.0500   28.6860   56.1640 C.ar    0  <0>0       -0.0036
      4  C2        -2.9060   28.3520   57.1980 C.ar    0  <0>0       -0.0003
      5  C1        -2.5760   27.3250   58.0630 C.ar    0  <0>0       -0.0000
      6  C6        -1.3920   26.6330   57.8960 C.ar    0  <0>0       -0.0003
      7  C5        -0.5390   26.9640   56.8590 C.ar    0  <0>0       -0.0036
      8  C8         0.1670   29.8580   54.7670 C.2     0  <0>0        0.0995
      9  N1         0.9300   30.5060   55.5650 N.2     0  <0>0       -0.1838
     10  N2         1.0220   31.9000   55.4670 N.pl3   0  <0>0       -0.2346
     11  H8         1.0490   32.3250   54.5960 H       0  <0>0        0.1745
     12  C9         1.0740   32.6790   56.6260 C.ar    0  <0>0        0.0874
     13  C14        2.2450   33.3470   56.9640 C.ar    0  <0>0        0.1575
     14  C13        2.2940   34.1110   58.1130 C.ar    0  <0>0        0.0254
     15  C12        1.1760   34.2230   58.9200 C.ar    0  <0>0        0.0018
     16  C11        0.0090   33.5590   58.5850 C.ar    0  <0>0        0.0014
     17  C10       -0.0450   32.7880   57.4420 C.ar    0  <0>0        0.0177
     18  N3         3.4400   33.2330   56.0970 N.pl3   0  <0>0        0.0590
     19  O1         3.5010   33.8670   55.0590 O.2     0  <0>0       -0.1261
     20  O2         4.3630   32.5090   56.4250 O.2     0  <0>0       -0.1261
     21  C15       -0.4660   27.7990   53.5760 C.ar    0  <0>0       -0.0127
     22  C20       -0.1590   26.5030   53.2040 C.ar    0  <0>0       -0.0036
     23  C19       -0.6490   25.9910   52.0170 C.ar    0  <0>0       -0.0003
     24  C18       -1.4450   26.7730   51.2020 C.ar    0  <0>0       -0.0000
     25  C17       -1.7510   28.0690   51.5740 C.ar    0  <0>0       -0.0003
     26  C16       -1.2660   28.5800   52.7640 C.ar    0  <0>0       -0.0036
@<TRIPOS>BOND
     1    24    25   ar
     2    24    23   ar
     3    25    26   ar
     4    23    22   ar
     5    26    21   ar
     6    22    21   ar
     7    21     1    1
     8    11    10    1
     9     8     1    1
    10     8     9    2
    11     1     2    1
    12    19    18    2
    13    10     9    1
    14    10    12    1
    15     2     3   ar
    16     2     7   ar
    17    18    20    2
    18    18    13    1
    19     3     4   ar
    20    12    13   ar
    21    12    17   ar
    22     7     6   ar
    23    13    14   ar
    24     4     5   ar
    25    17    16   ar
    26     6     5   ar
    27    14    15   ar
    28    16    15   ar
