@<TRIPOS>MOLECULE
ZINC05222490_replica-1.pdb
 27 28 0 0 0
SMALL
GASTEIGER

@<TRIPOS>ATOM
      1  N2         9.9790   34.5950   61.0900 N.am    0  <0>0       -0.2027
      2  C3        10.4240   33.4280   61.5950 C.2     0  <0>0        0.2645
      3  O1         9.7050   32.4460   61.5830 O.2     0  <0>0       -0.2684
      4  H4        10.5510   35.3780   61.0990 H       0  <0>0        0.1776
      5  N1         8.6890   34.6780   60.5500 N.2     0  <0>0       -0.1833
      6  C2         7.9680   35.7460   60.7440 C.2     0  <0>0        0.0766
      7  C1         8.5220   36.8920   61.5500 C.3     0  <0>0        0.0537
      8  C13        6.6630   35.8290   60.1970 C.2     0  <0>0        0.0162
      9  C14        5.8050   34.7980   60.3380 C.2     0  <0>0        0.0013
     10  C15        4.4510   34.8850   59.7700 C.ar    0  <0>0        0.0002
     11  C20        3.4720   33.9550   60.1410 C.ar    0  <0>0        0.0031
     12  C19        2.2060   34.0420   59.6070 C.ar    0  <0>0        0.0369
     13  C18        1.8980   35.0500   58.7020 C.ar    0  <0>0        0.1387
     14  C17        2.8650   35.9750   58.3310 C.ar    0  <0>0        0.0369
     15  C16        4.1330   35.9010   58.8630 C.ar    0  <0>0        0.0031
     16  O3         0.6470   35.1310   58.1780 O.3     0  <0>0       -0.4714
     17  C21        0.5250   35.7070   56.8770 C.3     0  <0>0        0.2525
     18  C4        11.7820   33.3400   62.1640 C.ar    0  <0>0        0.0552
     19  C9        12.6720   34.4090   62.0190 C.ar    0  <0>0        0.0077
     20  C8        13.9400   34.3230   62.5500 C.ar    0  <0>0        0.0371
     21  C7        14.3340   33.1760   63.2300 C.ar    0  <0>0        0.1391
     22  C6        13.4520   32.1130   63.3780 C.ar    0  <0>0        0.0371
     23  C5        12.1820   32.1900   62.8500 C.ar    0  <0>0        0.0077
     24  O2        15.5840   33.0960   63.7530 O.3     0  <0>0       -0.4707
     25  C10       15.8490   33.8720   64.9240 C.3     0  <0>0        0.2318
     26  C11       17.2930   34.3010   64.9260 C.2     0  <0>0        0.0207
     27  C12       17.7620   35.0270   63.9410 C.2     0  <0>0       -0.0011
@<TRIPOS>BOND
     1    17    16    1
     2    16    13    1
     3    14    13   ar
     4    14    15   ar
     5    13    12   ar
     6    15    10   ar
     7    12    11   ar
     8    10    11   ar
     9    10     9    1
    10     8     9    2
    11     8     6    1
    12     5     6    2
    13     5     1    1
    14     6     7    1
    15     1     4    1
    16     1     2   am
    17     3     2    2
    18     2    18    1
    19    19    18   ar
    20    19    20   ar
    21    18    23   ar
    22    20    21   ar
    23    23    22   ar
    24    21    22   ar
    25    21    24    1
    26    24    25    1
    27    27    26    2
    28    25    26    1
