@<TRIPOS>MOLECULE
ZINC44215606_replica-1.pdb
 20 21 0 0 0
SMALL
GASTEIGER

@<TRIPOS>ATOM
      1  C9         7.2080   36.8550   56.2510 C.3     0  <0>0        0.1756
      2  O1         5.8240   36.7130   56.5760 O.3     0  <0>0       -0.3533
      3  C8         5.4290   35.3680   56.8550 C.3     0  <0>0        0.1153
      4  C3         4.0130   35.1330   56.3250 C.3     0  <0>0        0.0272
      5  C4         3.0450   36.1020   57.0080 C.3     0  <0>0        0.0024
      6  C5         3.0700   35.8660   58.5210 C.3     0  <0>0        0.0002
      7  C6         4.4860   36.1010   59.0500 C.3     0  <0>0        0.0025
      8  C7         5.4530   35.1330   58.3660 C.3     0  <0>0        0.0296
      9  C2         3.9870   35.3680   54.8140 C.3     0  <0>0        0.0024
     10  C1         4.9170   34.3670   54.1260 C.3     0  <0>0        0.0001
     11  C10        7.8670   37.8210   57.2370 C.3     0  <0>0        0.1622
     12  C11        8.6420   37.0380   58.2650 C.ar    0  <0>0        0.0067
     13  C16        9.0510   35.7470   57.9880 C.ar    0  <0>0       -0.0022
     14  C15        9.7660   35.0310   58.9300 C.ar    0  <0>0       -0.0045
     15  C14       10.0660   35.6030   60.1520 C.ar    0  <0>0       -0.0219
     16  C13        9.6530   36.8920   60.4320 C.ar    0  <0>0       -0.0045
     17  C17       10.8410   34.8210   61.1800 C.3     0  <0>0        0.0310
     18  C12        8.9410   37.6090   59.4880 C.ar    0  <0>0       -0.0022
     19  O2         8.7560   38.6900   56.5320 O.3     0  <0>0       -0.3775
     20  H26        9.6920   38.5140   56.6970 H       0  <0>0        0.2109
@<TRIPOS>BOND
     1    10     9    1
     2     9     4    1
     3     1     2    1
     4     1    11    1
     5     4     3    1
     6     4     5    1
     7    19    20    1
     8    19    11    1
     9     2     3    1
    10     3     8    1
    11     5     6    1
    12    11    12    1
    13    13    12   ar
    14    13    14   ar
    15    12    18   ar
    16     8     7    1
    17     6     7    1
    18    14    15   ar
    19    18    16   ar
    20    15    16   ar
    21    15    17    1
