@<TRIPOS>MOLECULE
ZINC05368215_replica-1.pdb
 21 21 0 0 0
SMALL
GASTEIGER

@<TRIPOS>ATOM
      1  C3         7.4930   37.1580   58.3890 C.3     0  <0>0        0.0112
      2  C2         6.8470   35.9590   57.6920 C.3     0  <0>0        0.0539
      3  C1         7.8970   34.8660   57.4800 C.3     0  <0>0        0.0121
      4  S1         6.1860   36.4770   56.0890 S.3     0  <0>0       -0.0876
      5  C12        4.8980   35.2920   55.8910 C.ar    0  <0>0        0.1576
      6  S3         4.0010   34.3860   57.1430 S.2     0  <0>0       -0.0346
      7  C13        2.9330   33.4600   56.0530 C.ar    0  <0>0        0.1415
      8  N2         3.3470   33.9060   54.8390 N.ar    0  <0>0       -0.2628
      9  S2         1.7200   32.3140   56.4330 S.2     0  <0>0       -0.0235
     10  N1         4.3530   34.8430   54.7900 N.ar    0  <0>0       -0.1587
     11  H2         2.9420   33.5710   54.0250 H       0  <0>0        0.1901
     12  C4         8.8950   36.7750   58.8670 C.3     0  <0>0        0.0009
     13  C5         9.2150   37.5230   60.1640 C.3     0  <0>0        0.0000
     14  C6        10.0830   36.6390   61.0610 C.3     0  <0>0        0.0000
     15  C7        10.3850   35.3230   60.3410 C.3     0  <0>0        0.0000
     16  C8        11.3540   34.4910   61.1850 C.3     0  <0>0        0.0006
     17  C9        11.9390   35.3630   62.2960 C.3     0  <0>0        0.0118
     18  C10       12.5070   34.4690   63.4000 C.3     0  <0>0        0.1141
     19  C11       13.5440   33.5450   62.8150 C.2     0  <0>0        0.3649
     20  O1        14.5300   34.0010   62.2840 O.co2   0  <0>0       -0.2457
     21  O2        13.3750   32.2150   62.8840 O.co2   0  <0>0       -0.2457
@<TRIPOS>BOND
     1    11     8    1
     2    10     8   ar
     3    10     5   ar
     4     8     7   ar
     5     5     4    1
     6     5     6   ar
     7     7     9    2
     8     7     6   ar
     9     4     2    1
    10     3     2    1
    11     2     1    1
    12     1    12    1
    13    12    13    1
    14    13    14    1
    15    15    14    1
    16    15    16    1
    17    16    17    1
    18    20    19   ar
    19    17    18    1
    20    19    21   ar
    21    19    18    1
