@<TRIPOS>MOLECULE
ZINC31980001_replica-1.pdb
 21 22 0 0 0
SMALL
GASTEIGER

@<TRIPOS>ATOM
      1  C1        11.5200   36.6570   62.6440 C.3     0  <0>0        0.0523
      2  C2        10.9950   35.4340   61.8900 C.3     0  <0>0        0.1883
      3  C3        10.2300   35.8840   60.6730 C.ar    0  <0>0        0.0173
      4  C8        10.0940   35.0330   59.5910 C.ar    0  <0>0        0.0004
      5  C7         9.3930   35.4410   58.4730 C.ar    0  <0>0        0.0143
      6  C6         8.8220   36.7070   58.4370 C.ar    0  <0>0        0.0479
      7  C5         8.9600   37.5580   59.5260 C.ar    0  <0>0        0.0143
      8  C4         9.6580   37.1420   60.6430 C.ar    0  <0>0        0.0004
      9  N1         8.1120   37.1230   57.3080 N.pl3   0  <0>0       -0.3041
     10  C9         7.3360   36.1520   56.5330 C.3     0  <0>0        0.1122
     11  C10        8.1430   38.5300   56.9010 C.3     0  <0>0        0.1122
     12  O1        12.0960   34.6160   61.4840 O.3     0  <0>0       -0.4748
     13  C11       12.3500   33.5080   62.2300 C.ar    0  <0>0        0.1389
     14  C16       13.6420   33.2400   62.6570 C.ar    0  <0>0        0.0382
     15  C15       13.9000   32.1140   63.4150 C.ar    0  <0>0        0.0174
     16  C14       12.8650   31.2510   63.7490 C.ar    0  <0>0        0.0449
     17  C13       11.5720   31.5200   63.3210 C.ar    0  <0>0        0.0174
     18  C12       11.3140   32.6490   62.5680 C.ar    0  <0>0        0.0382
     19  N2        13.1250   30.1100   64.5160 N.pl3   0  <0>0       -0.3313
     20  C17       12.0960   29.0790   64.6670 C.3     0  <0>0        0.1085
     21  H19       14.1030   29.9870   65.0060 H       0  <0>0        0.1469
@<TRIPOS>BOND
     1    10     9    1
     2    11     9    1
     3     9     6    1
     4     6     5   ar
     5     6     7   ar
     6     5     4   ar
     7     7     8   ar
     8     4     3   ar
     9     8     3   ar
    10     3     2    1
    11    12     2    1
    12    12    13    1
    13     2     1    1
    14    13    18   ar
    15    13    14   ar
    16    18    17   ar
    17    14    15   ar
    18    17    16   ar
    19    15    16   ar
    20    16    19    1
    21    19    20    1
    22    19    21    1
