@<TRIPOS>MOLECULE
ZINC66696617_replica-1.pdb
 26 28 0 0 0
SMALL
GASTEIGER

@<TRIPOS>ATOM
      1  C8         0.3240   30.9230   55.3790 C.2     0  <0>0        0.2429
      2  O1        -0.4900   31.7520   55.0300 O.2     0  <0>0       -0.2732
      3  N2         1.4260   31.3040   56.0540 N.am    0  <0>0       -0.2968
      4  H10        2.0780   30.6420   56.3330 H       0  <0>0        0.1500
      5  C9         1.6420   32.7200   56.3660 C.3     0  <0>0        0.1230
      6  C10        3.0990   33.0570   56.1860 C.ar    0  <0>0        0.0003
      7  C15        4.0610   32.3790   56.9120 C.ar    0  <0>0       -0.0000
      8  C14        5.3980   32.6840   56.7450 C.ar    0  <0>0        0.0294
      9  C13        5.7750   33.6790   55.8570 C.ar    0  <0>0        0.1401
     10  C12        4.8110   34.3610   55.1350 C.ar    0  <0>0        0.0294
     11  F1         7.0810   33.9810   55.6960 F       0  <0>0       -0.2042
     12  C11        3.4750   34.0500   55.3000 C.ar    0  <0>0       -0.0000
     13  C16        1.2370   32.9860   57.7930 C.ar    0  <0>0        0.0292
     14  S1         1.0010   34.5500   58.6210 S.2     0  <0>0       -0.0888
     15  C19        0.5420   33.9180   60.2270 C.ar    0  <0>0        0.0352
     16  C18        0.6060   32.5780   60.0290 C.ar    0  <0>0        0.0072
     17  C17        0.9610   32.1000   58.7810 C.ar    0  <0>0        0.0046
     18  C7         0.1020   29.4680   55.0590 C.3     0  <0>0        0.1736
     19  N1        -0.8210   29.3530   53.9260 N.pl3   0  <0>0       -0.3253
     20  H7        -1.4120   30.0880   53.7060 H       0  <0>0        0.1473
     21  C4        -0.8470   28.1830   53.1640 C.ar    0  <0>0        0.0450
     22  C3        -0.1800   27.0480   53.6070 C.ar    0  <0>0        0.0143
     23  C2        -0.2070   25.8930   52.8500 C.ar    0  <0>0        0.0013
     24  C1        -0.8970   25.8650   51.6520 C.ar    0  <0>0        0.0001
     25  C6        -1.5620   26.9930   51.2080 C.ar    0  <0>0        0.0013
     26  C5        -1.5390   28.1520   51.9590 C.ar    0  <0>0        0.0143
@<TRIPOS>BOND
     1    25    24   ar
     2    25    26   ar
     3    24    23   ar
     4    26    21   ar
     5    23    22   ar
     6    21    22   ar
     7    21    19    1
     8    20    19    1
     9    19    18    1
    10     2     1    2
    11    18     1    1
    12    10    12   ar
    13    10     9   ar
    14    12     6   ar
    15     1     3   am
    16    11     9    1
    17     9     8   ar
    18     3     4    1
    19     3     5    1
    20     6     5    1
    21     6     7   ar
    22     5    13    1
    23     8     7   ar
    24    13    14   ar
    25    13    17   ar
    26    14    15   ar
    27    17    16   ar
    28    16    15   ar
