@<TRIPOS>MOLECULE
ZINC32183548_replica-1.pdb
 24 25 0 0 0
SMALL
GASTEIGER

@<TRIPOS>ATOM
      1  C9         0.6100   31.4320   55.9950 C.3     0  <0>0        0.1735
      2  C8         0.3550   30.7970   57.3630 C.3     0  <0>0        0.2361
      3  O1        -1.0160   30.4030   57.4580 O.3     0  <0>0       -0.4731
      4  C6        -1.2760   29.2220   58.0760 C.ar    0  <0>0        0.1343
      5  C5        -2.2670   28.3840   57.5840 C.ar    0  <0>0        0.0121
      6  C4        -2.5260   27.1810   58.2100 C.ar    0  <0>0       -0.0016
      7  C19       -3.0590   28.7870   56.3670 C.3     0  <0>0        0.0342
      8  C3        -1.7990   26.8100   59.3260 C.ar    0  <0>0       -0.0044
      9  C2        -0.8110   27.6430   59.8180 C.ar    0  <0>0       -0.0189
     10  C1        -0.0200   27.2350   61.0350 C.3     0  <0>0        0.0311
     11  C7        -0.5480   28.8470   59.1960 C.ar    0  <0>0        0.0323
     12  C10        0.1520   30.4720   54.8930 C.3     0  <0>0        0.1206
     13  N1         0.4940   29.0980   55.2710 N.pl3   0  <0>0       -0.3306
     14  H12        0.9770   28.8970   56.2380 H       0  <0>0        0.1469
     15  C11        0.2070   28.0430   54.4010 C.ar    0  <0>0        0.0444
     16  C16       -0.5040   28.2790   53.2320 C.ar    0  <0>0        0.0097
     17  C15       -0.7860   27.2330   52.3740 C.ar    0  <0>0       -0.0246
     18  C14       -0.3610   25.9530   52.6800 C.ar    0  <0>0       -0.0257
     19  C17       -1.5570   27.4880   51.1050 C.3     0  <0>0        0.0307
     20  C13        0.3470   25.7150   53.8430 C.ar    0  <0>0       -0.0033
     21  C18       -0.6710   24.8150   51.7420 C.3     0  <0>0        0.0307
     22  C12        0.6370   26.7570   54.7020 C.ar    0  <0>0        0.0140
     23  O2         2.0060   31.6980   55.8450 O.3     0  <0>0       -0.3791
     24  H22        2.3400   32.6380   55.3810 H       0  <0>0        0.2106
@<TRIPOS>BOND
     1    19    17    1
     2    21    18    1
     3    17    18   ar
     4    17    16   ar
     5    18    20   ar
     6    16    15   ar
     7    20    22   ar
     8    15    22   ar
     9    15    13    1
    10    12    13    1
    11    12     1    1
    12    13    14    1
    13    24    23    1
    14    23     1    1
    15     1     2    1
    16     7     5    1
    17     2     3    1
    18     3     4    1
    19     5     4   ar
    20     5     6   ar
    21     4    11   ar
    22     6     8   ar
    23    11     9   ar
    24     8     9   ar
    25     9    10    1
