@<TRIPOS>MOLECULE
ZINC14021141_replica-1.pdb
 25 26 0 0 0
SMALL
GASTEIGER

@<TRIPOS>ATOM
      1  N2         0.7920   30.1100   55.4210 N.am    0  <0>0       -0.2023
      2  C9         0.2860   31.3090   55.7720 C.2     0  <0>0        0.2645
      3  O1        -0.6870   31.7520   55.1930 O.2     0  <0>0       -0.2684
      4  H9         1.5690   29.7570   55.8830 H       0  <0>0        0.1776
      5  C10        0.9130   32.0830   56.8600 C.ar    0  <0>0        0.0552
      6  C15        0.2870   33.2310   57.3540 C.ar    0  <0>0        0.0077
      7  C14        0.8760   33.9510   58.3690 C.ar    0  <0>0        0.0370
      8  C13        2.0890   33.5390   58.9040 C.ar    0  <0>0        0.1386
      9  C12        2.7160   32.3980   58.4150 C.ar    0  <0>0        0.0370
     10  C11        2.1320   31.6690   57.4030 C.ar    0  <0>0        0.0077
     11  O2         2.6670   34.2510   59.9040 O.3     0  <0>0       -0.4755
     12  C16        3.9710   34.7790   59.6580 C.3     0  <0>0        0.2054
     13  C17        3.8550   36.0580   58.8270 C.3     0  <0>0        0.0473
     14  C18        4.6010   35.8760   57.5030 C.3     0  <0>0        0.0037
     15  C19        5.4630   34.6130   57.5740 C.3     0  <0>0        0.0001
     16  C20        3.5900   35.7390   56.3630 C.3     0  <0>0        0.0001
     17  N1         0.1960   29.3740   54.3880 N.2     0  <0>0       -0.1774
     18  C8         0.3920   28.0940   54.3080 C.2     0  <0>0        0.1173
     19  C7        -0.2350   27.3190   53.2200 C.ar    0  <0>0        0.0167
     20  C2        -0.0950   25.9300   53.1770 C.ar    0  <0>0       -0.0203
     21  C1         0.6950   25.2170   54.2440 C.3     0  <0>0        0.0311
     22  C3        -0.6840   25.2120   52.1570 C.ar    0  <0>0       -0.0042
     23  C4        -1.4140   25.8650   51.1800 C.ar    0  <0>0       -0.0003
     24  C5        -1.5520   27.2420   51.2130 C.ar    0  <0>0        0.0000
     25  C6        -0.9690   27.9720   52.2270 C.ar    0  <0>0        0.0013
@<TRIPOS>BOND
     1    23    24   ar
     2    23    22   ar
     3    24    25   ar
     4    22    20   ar
     5    25    19   ar
     6    20    19   ar
     7    20    21    1
     8    19    18    1
     9    18    17    2
    10    17     1    1
    11     3     2    2
    12     1     2   am
    13     1     4    1
    14     2     5    1
    15    16    14    1
    16     5     6   ar
    17     5    10   ar
    18     6     7   ar
    19    10     9   ar
    20    14    15    1
    21    14    13    1
    22     7     8   ar
    23     9     8   ar
    24    13    12    1
    25     8    11    1
    26    12    11    1
