@<TRIPOS>MOLECULE
ZINC36936650_replica-1.pdb
 22 23 0 0 0
SMALL
GASTEIGER

@<TRIPOS>ATOM
      1  C8         6.5240   36.5400   57.3030 C.ar    0  <0>0        0.1015
      2  C9         7.7920   37.0840   57.5940 C.ar    0  <0>0        0.0680
      3  C10        8.0370   38.0860   56.6730 C.ar    0  <0>0        0.2233
      4  O1         6.9700   38.1500   55.8580 O.2     0  <0>0       -0.3390
      5  N1         6.0390   37.1680   56.2700 N.ar    0  <0>0       -0.0798
      6  C5         5.8500   35.4190   58.0520 C.3     0  <0>0        0.0437
      7  C4         4.6290   34.9410   57.2640 C.3     0  <0>0        0.0060
      8  C3         3.3580   35.5080   57.8980 C.3     0  <0>0        0.0004
      9  C2         2.4390   36.0500   56.8020 C.3     0  <0>0        0.0000
     10  C1         0.9910   35.6700   57.1160 C.3     0  <0>0        0.0000
     11  C6         5.4050   35.9210   59.4270 C.3     0  <0>0        0.0060
     12  C7         5.9670   35.0010   60.5130 C.3     0  <0>0        0.0004
     13  C11        8.6980   36.6610   58.6900 C.ar    0  <0>0        0.0056
     14  C16        8.8770   37.4790   59.8040 C.ar    0  <0>0        0.0007
     15  C15        9.7160   37.0770   60.8240 C.ar    0  <0>0        0.0067
     16  C14       10.3890   35.8710   60.7350 C.ar    0  <0>0        0.0346
     17  C13       10.2190   35.0580   59.6280 C.ar    0  <0>0        0.0067
     18 Br         11.5430   35.3310   62.1320 Br      0  <0>0       -0.0490
     19  C12        9.3780   35.4470   58.6050 C.ar    0  <0>0        0.0007
     20  N2         9.1650   38.8730   56.6030 N.pl3   0  <0>0       -0.3267
     21  H16        9.9130   38.7030   57.1980 H       0  <0>0        0.1452
     22  H17        9.2130   39.5980   55.9600 H       0  <0>0        0.1452
@<TRIPOS>BOND
     1     4     5   ar
     2     4     3   ar
     3    22    20    1
     4     5     1   ar
     5    20     3    1
     6    20    21    1
     7     3     2   ar
     8     9    10    1
     9     9     8    1
    10     7     8    1
    11     7     6    1
    12     1     2   ar
    13     1     6    1
    14     2    13    1
    15     6    11    1
    16    19    13   ar
    17    19    17   ar
    18    13    14   ar
    19    11    12    1
    20    17    16   ar
    21    14    15   ar
    22    16    15   ar
    23    16    18    1
