@<TRIPOS>MOLECULE
ZINC32230567_replica-1.pdb
 25 26 0 0 0
SMALL
GASTEIGER

@<TRIPOS>ATOM
      1  C10        0.3690   31.5100   55.5550 C.3     0  <0>0        0.1735
      2  C9         0.6450   30.7120   56.8300 C.3     0  <0>0        0.1206
      3  N1         1.5670   31.4610   57.6850 N.pl3   0  <0>0       -0.3309
      4  H11        2.5970   31.6500   57.3500 H       0  <0>0        0.1469
      5  C5         1.1400   31.9340   58.9280 C.ar    0  <0>0        0.0406
      6  C4         0.6900   31.0430   59.8950 C.ar    0  <0>0        0.0137
      7  C3         0.2730   31.5120   61.1240 C.ar    0  <0>0       -0.0030
      8  C2         0.2970   32.8690   61.3920 C.ar    0  <0>0       -0.0221
      9  C1        -0.1580   33.3780   62.7360 C.3     0  <0>0        0.0310
     10  C7         0.7400   33.7590   60.4320 C.ar    0  <0>0       -0.0073
     11  C6         1.1580   33.2960   59.2000 C.ar    0  <0>0       -0.0090
     12  C8         1.6400   34.2660   58.1530 C.3     0  <0>0        0.0323
     13  C11       -0.3690   30.6260   54.5480 C.3     0  <0>0        0.2361
     14  O1        -0.5600   29.3250   55.1060 O.3     0  <0>0       -0.4731
     15  C12       -0.5470   28.2750   54.2430 C.ar    0  <0>0        0.1343
     16  C17        0.0940   27.0960   54.5920 C.ar    0  <0>0        0.0118
     17  C16        0.1050   26.0300   53.7140 C.ar    0  <0>0       -0.0058
     18  C18        0.7770   26.9770   55.9310 C.3     0  <0>0        0.0342
     19  C15       -0.5220   26.1380   52.4860 C.ar    0  <0>0       -0.0259
     20  C14       -1.1620   27.3130   52.1350 C.ar    0  <0>0       -0.0228
     21  C19       -0.5080   24.9740   51.5290 C.3     0  <0>0        0.0307
     22  C13       -1.1810   28.3780   53.0120 C.ar    0  <0>0        0.0320
     23  C20       -1.8430   27.4270   50.7960 C.3     0  <0>0        0.0308
     24  O2        -0.4350   32.6480   55.8680 O.3     0  <0>0       -0.3791
     25  H27       -0.2190   33.6210   55.4030 H       0  <0>0        0.2106
@<TRIPOS>BOND
     1    23    20    1
     2    21    19    1
     3    20    19   ar
     4    20    22   ar
     5    19    17   ar
     6    22    15   ar
     7    17    16   ar
     8    15    16   ar
     9    15    14    1
    10    13    14    1
    11    13     1    1
    12    16    18    1
    13    25    24    1
    14     1    24    1
    15     1     2    1
    16     2     3    1
    17     4     3    1
    18     3     5    1
    19    12    11    1
    20     5    11   ar
    21     5     6   ar
    22    11    10   ar
    23     6     7   ar
    24    10     8   ar
    25     7     8   ar
    26     8     9    1
