@<TRIPOS>MOLECULE
ZINC45652012_replica-1.pdb
 21 22 0 0 0
SMALL
GASTEIGER

@<TRIPOS>ATOM
      1  N1         8.6830   37.1010   59.0560 N.pl3   0  <0>0       -0.3362
      2  H15        8.1940   37.8750   59.3740 H       0  <0>0        0.1467
      3  C8         9.5400   36.4150   59.9200 C.ar    0  <0>0        0.0445
      4  C7         9.9250   36.9920   61.1230 C.ar    0  <0>0        0.0140
      5  C6        10.7710   36.3100   61.9750 C.ar    0  <0>0       -0.0030
      6  C5        11.2360   35.0540   61.6310 C.ar    0  <0>0       -0.0224
      7  C10       10.8600   34.4790   60.4320 C.ar    0  <0>0       -0.0030
      8  C9        10.0090   35.1530   59.5780 C.ar    0  <0>0        0.0140
      9  C3        12.1600   34.3130   62.5630 C.3     0  <0>0        0.0223
     10  C4        11.6580   32.8780   62.7430 C.3     0  <0>0        0.0047
     11  C2        13.5710   34.2890   61.9710 C.3     0  <0>0        0.0044
     12  C1        14.4670   33.3880   62.8230 C.3     0  <0>0        0.0003
     13  C11        8.5260   36.6530   57.6710 C.3     0  <0>0        0.0463
     14  C14        7.1640   35.9580   57.4860 C.3     0  <0>0       -0.0574
     15  N2         6.4010   36.7600   56.5010 N.4     0  <0>0        0.3894
     16  C13        7.4160   37.4650   55.6770 C.3     0  <0>0       -0.0756
     17  H29        5.8140   37.4290   56.9770 H       0  <0>0       -0.0795
     18  C12        8.4970   37.8670   56.7130 C.3     0  <0>0       -0.0054
     19  C15        5.5840   35.8790   55.6550 C.3     0  <0>0       -0.0581
     20  C16        5.6930   34.4400   56.1640 C.3     0  <0>0       -0.0229
     21  C17        4.1240   36.3300   55.7090 C.3     0  <0>0       -0.0229
@<TRIPOS>BOND
     1    19    21    1
     2    19    20    1
     3    19    15    1
     4    16    15    1
     5    16    18    1
     6    15    17    1
     7    15    14    1
     8    18    13    1
     9    14    13    1
    10    13     1    1
    11     1     2    1
    12     1     3    1
    13     8     3   ar
    14     8     7   ar
    15     3     4   ar
    16     7     6   ar
    17     4     5   ar
    18     6     5   ar
    19     6     9    1
    20    11     9    1
    21    11    12    1
    22     9    10    1
