@<TRIPOS>MOLECULE
ZINC07665802_replica-1.pdb
 24 24 0 0 0
SMALL
GASTEIGER

@<TRIPOS>ATOM
      1  C1         8.6160   32.2820   60.4110 C.3     0  <0>0        0.0307
      2  C2         9.5080   33.4200   60.8350 C.ar    0  <0>0       -0.0256
      3  C3        10.6610   33.1640   61.5540 C.ar    0  <0>0       -0.0088
      4  C4        11.4760   34.2080   61.9490 C.ar    0  <0>0       -0.0234
      5  C5        11.1410   35.5090   61.6200 C.ar    0  <0>0       -0.0088
      6  C6         9.9910   35.7650   60.8980 C.ar    0  <0>0       -0.0256
      7  C7         9.1770   34.7200   60.5030 C.ar    0  <0>0       -0.0188
      8  C14        9.6260   37.1820   60.5400 C.3     0  <0>0        0.0307
      9  C8         7.9220   34.9990   59.7160 C.3     0  <0>0        0.0904
     10  S1         8.2830   34.8860   57.9450 S.3     0  <0>0       -0.0762
     11  C9         6.6570   34.6360   57.3160 C.2     0  <0>0        0.1461
     12  N1         5.8490   35.6500   57.1750 N.pl3   0  <0>0       -0.2162
     13  C10        4.4550   35.4280   56.7840 C.3     0  <0>0        0.1240
     14  C11        3.5320   35.8240   57.9380 C.3     0  <0>0        0.0261
     15  C12        4.1280   36.2770   55.5540 C.3     0  <0>0        0.1637
     16  O1         3.7170   35.4250   54.4830 O.3     0  <0>0       -0.3493
     17  C13        4.7680   34.6170   53.9490 C.3     0  <0>0        0.1742
     18  N2         6.2390   33.3710   56.9750 N.2     0  <0>0       -0.3804
     19  H17        6.2760   33.0800   56.0500 H       0  <0>0        0.1576
     20  H18        5.9060   32.7680   57.6590 H       0  <0>0        0.1576
     21  C15       12.7310   33.9290   62.7360 C.3     0  <0>0        0.0189
     22  C16       13.9530   34.1540   61.8440 C.3     0  <0>0        0.0044
     23  C17       12.7970   34.8720   63.9390 C.3     0  <0>0        0.0044
     24  C18       12.7150   32.4790   63.2250 C.3     0  <0>0        0.0044
@<TRIPOS>BOND
     1    17    16    1
     2    16    15    1
     3    15    13    1
     4    19    18    1
     5    13    12    1
     6    13    14    1
     7    18    11    2
     8    18    20    1
     9    12    11    1
    10    11    10    1
    11    10     9    1
    12     9     7    1
    13     1     2    1
    14     7     2   ar
    15     7     6   ar
    16     8     6    1
    17     2     3   ar
    18     6     5   ar
    19     3     4   ar
    20     5     4   ar
    21    22    21    1
    22     4    21    1
    23    21    24    1
    24    21    23    1
