@<TRIPOS>MOLECULE
ZINC39941039_replica-1.pdb
 28 31 0 0 0
SMALL
GASTEIGER

@<TRIPOS>ATOM
      1  C10        4.3620   34.6270   57.9110 C.1     0  <0>0        0.1431
      2  N2         5.0530   34.3440   58.9890 N.2     0  <0>0       -0.2692
      3  C11        6.2820   34.8230   59.2050 C.1     0  <0>0        0.2168
      4  O1         6.8990   34.5390   60.2200 O.2     0  <0>0       -0.2085
      5  C12        6.8780   35.7140   58.1680 C.2     0  <0>0        0.1286
      6  C13        8.1110   36.3190   58.1680 C.2     0  <0>0        0.0041
      7  C14        8.4570   37.1780   56.9720 C.3     0  <0>0        0.0917
      8  S1         6.9410   37.0270   55.9460 S.3     0  <0>0       -0.0759
      9  C15        6.0070   35.9550   57.0080 C.2     0  <0>0        0.1810
     10  N3         4.8150   35.4030   56.9410 N.2     0  <0>0       -0.3345
     11  C9         2.9850   34.0330   57.7670 C.3     0  <0>0        0.2004
     12  N1         2.1050   34.5780   58.8100 N.3     0  <0>0       -0.2531
     13  C1         1.9400   36.0290   58.6540 C.3     0  <0>0        0.0908
     14  C2         0.8040   33.8970   58.8100 C.3     0  <0>0        0.1009
     15  C3         0.5050   33.3820   60.1950 C.ar    0  <0>0        0.0045
     16  C8         0.7750   32.0630   60.5150 C.ar    0  <0>0        0.0550
     17  C7         0.5060   31.5920   61.7880 C.ar    0  <0>0        0.0111
     18 Cl          1.4570   31.0020   59.3230 Cl      0  <0>0       -0.0825
     19  C6        -0.0420   32.4370   62.7350 C.ar    0  <0>0        0.0008
     20  C5        -0.3160   33.7530   62.4130 C.ar    0  <0>0       -0.0002
     21  C4        -0.0430   34.2250   61.1430 C.ar    0  <0>0       -0.0021
     22  C16        9.0490   36.1400   59.2760 C.ar    0  <0>0       -0.0022
     23  C21        9.0840   37.0670   60.3290 C.ar    0  <0>0        0.0006
     24  C20        9.9660   36.8880   61.3690 C.ar    0  <0>0        0.0114
     25  C19       10.8260   35.8000   61.3760 C.ar    0  <0>0        0.0577
     26  C18       10.8030   34.8810   60.3370 C.ar    0  <0>0        0.0114
     27 Cl         11.9390   35.5870   62.6910 Cl      0  <0>0       -0.0822
     28  C17        9.9220   35.0420   59.2900 C.ar    0  <0>0        0.0006
@<TRIPOS>BOND
     1     8     7    1
     2     8     9    1
     3    10     9    2
     4    10     1    2
     5     7     6    1
     6     9     5    1
     7    11     1    1
     8    11    12    1
     9     1     2    2
    10     5     6    2
    11     5     3    1
    12     6    22    1
    13    13    12    1
    14    12    14    1
    15    14    15    1
    16     2     3    2
    17     3     4    2
    18    22    28   ar
    19    22    23   ar
    20    28    26   ar
    21    18    16    1
    22    15    16   ar
    23    15    21   ar
    24    23    24   ar
    25    26    25   ar
    26    16    17   ar
    27    21    20   ar
    28    24    25   ar
    29    25    27    1
    30    17    19   ar
    31    20    19   ar
