@<TRIPOS>MOLECULE
ZINC37265296_replica-1.pdb
 20 20 0 0 0
SMALL
GASTEIGER

@<TRIPOS>ATOM
      1  C7        -0.1920   28.1970   54.8530 C.ar    0  <0>0        0.0446
      2  C8         0.4070   26.9630   55.0900 C.ar    0  <0>0        0.0150
      3  C9         0.3470   25.9730   54.1380 C.ar    0  <0>0        0.0115
      4  C10       -0.3160   26.2060   52.9280 C.ar    0  <0>0        0.0724
      5  C11       -0.9160   27.4460   52.6930 C.ar    0  <0>0        0.0822
      6  C12       -0.8570   28.4320   53.6530 C.ar    0  <0>0        0.0188
      7  C14       -0.3810   25.1770   51.9350 C.1     0  <0>0        0.1004
      8  N2        -0.4310   24.3620   51.1460 N.1     0  <0>0       -0.1908
      9  C13       -1.6320   27.7030   51.3920 C.3     0  <0>0        0.4192
     10  F1        -2.4570   26.6150   51.0900 F       0  <0>0       -0.1658
     11  F2        -2.4090   28.8610   51.5080 F       0  <0>0       -0.1658
     12  F3        -0.6930   27.8740   50.3700 F       0  <0>0       -0.1658
     13  N1        -0.1300   29.1970   55.8190 N.pl3   0  <0>0       -0.3340
     14  H14        0.7180   29.6240   56.0220 H       0  <0>0        0.1468
     15  C2        -1.3440   29.6050   56.5300 C.3     0  <0>0        0.0691
     16  C1        -1.5690   31.1060   56.3360 C.3     0  <0>0        0.0212
     17  C3        -1.1880   29.3010   58.0210 C.3     0  <0>0        0.0195
     18  C4        -1.9960   28.0520   58.3760 C.3     0  <0>0        0.0016
     19  C5        -3.0520   27.8040   57.2970 C.3     0  <0>0        0.0001
     20  C6        -1.0580   26.8450   58.4580 C.3     0  <0>0        0.0001
@<TRIPOS>BOND
     1    12     9    1
     2    10     9    1
     3     8     7    3
     4     9    11    1
     5     9     5    1
     6     7     4    1
     7     5     4   ar
     8     5     6   ar
     9     4     3   ar
    10     6     1   ar
    11     3     2   ar
    12     1     2   ar
    13     1    13    1
    14    13    14    1
    15    13    15    1
    16    16    15    1
    17    15    17    1
    18    19    18    1
    19    17    18    1
    20    18    20    1
