@<TRIPOS>MOLECULE
ZINC40404489_replica-1.pdb
 28 29 0 0 0
SMALL
GASTEIGER

@<TRIPOS>ATOM
      1  C8         8.0040   37.2020   59.0510 C.ar    0  <0>0        0.1461
      2  C9         8.4580   38.3730   58.5680 C.ar    0  <0>0        0.0380
      3  C10        7.9570   38.4940   57.2510 C.ar    0  <0>0        0.0336
      4  C11        7.2270   37.3900   57.0090 C.ar    0  <0>0        0.1017
      5  O1         7.2630   36.6080   58.1010 O.2     0  <0>0       -0.4618
      6  C12        6.4960   37.0800   55.7280 C.3     0  <0>0       -0.0105
      7  N1         5.5470   35.9840   55.9590 N.4     0  <0>0        0.3945
      8  H33        5.5470   35.7390   56.9380 H       0  <0>0       -0.0786
      9  C13        4.1980   36.4110   55.5610 C.3     0  <0>0       -0.0763
     10  C14        3.1680   35.8030   56.5140 C.3     0  <0>0       -0.0228
     11  C15        3.6790   35.9070   57.9520 C.3     0  <0>0       -0.0022
     12  C16        5.9450   34.8150   55.1630 C.3     0  <0>0       -0.0470
     13  C17        6.4270   33.7230   56.0810 C.ar    0  <0>0       -0.0157
     14  C22        5.5440   32.7590   56.5360 C.ar    0  <0>0        0.1341
     15  C21        5.9900   31.7530   57.3760 C.ar    0  <0>0        0.0292
     16  F1         4.2480   32.7980   56.1560 F       0  <0>0       -0.2046
     17  C20        7.3150   31.7170   57.7680 C.ar    0  <0>0        0.0023
     18  C19        8.1950   32.6830   57.3170 C.ar    0  <0>0       -0.0003
     19  C18        7.7520   33.6860   56.4750 C.ar    0  <0>0       -0.0041
     20  C4         8.2840   36.6470   60.4240 C.3     0  <0>0        0.1386
     21  C3         7.7070   35.2340   60.5310 C.3     0  <0>0        0.0343
     22  C2         6.1890   35.3160   60.7080 C.3     0  <0>0        0.0029
     23  C1         5.5650   33.9580   60.3840 C.3     0  <0>0        0.0001
     24  C5         9.7960   36.5990   60.6550 C.3     0  <0>0        0.0343
     25  C6        10.3450   35.2610   60.1570 C.3     0  <0>0        0.0029
     26  C7        11.2690   34.6610   61.2190 C.3     0  <0>0        0.0001
     27  O2         7.6780   37.4860   61.4090 O.3     0  <0>0       -0.3796
     28  H32        7.6730   37.1070   62.2990 H       0  <0>0        0.2108
@<TRIPOS>BOND
     1    12     7    1
     2    12    13    1
     3     9     7    1
     4     9    10    1
     5     6     7    1
     6     6     4    1
     7     7     8    1
     8    13    19   ar
     9    13    14   ar
    10    16    14    1
    11    19    18   ar
    12    10    11    1
    13    14    15   ar
    14     4     3   ar
    15     4     5   ar
    16     3     2   ar
    17    18    17   ar
    18    15    17   ar
    19     5     1   ar
    20     2     1   ar
    21     1    20    1
    22    25    24    1
    23    25    26    1
    24    23    22    1
    25    20    21    1
    26    20    24    1
    27    20    27    1
    28    21    22    1
    29    27    28    1
