@<TRIPOS>MOLECULE
ZINC66057786_replica-1.pdb
 26 29 0 0 0
SMALL
GASTEIGER

@<TRIPOS>ATOM
      1  C1        -1.1890   27.2970   51.7130 C.ar    0  <0>0       -0.0003
      2  C2        -0.4380   26.4640   52.5220 C.ar    0  <0>0       -0.0003
      3  C3        -0.1140   26.8630   53.8020 C.ar    0  <0>0       -0.0045
      4  C4        -0.5350   28.0950   54.2860 C.ar    0  <0>0       -0.0240
      5  C5        -1.2780   28.9280   53.4790 C.ar    0  <0>0       -0.0260
      6  C6        -1.6060   28.5220   52.1910 C.ar    0  <0>0       -0.0046
      7  C7        -1.7550   30.2840   53.9270 C.3     0  <0>0        0.0282
      8  C8        -1.7150   30.3910   55.4510 C.3     0  <0>0        0.0319
      9  C9        -0.3330   29.9550   55.9310 C.3     0  <0>0        0.1317
     10  C10       -0.1530   28.4620   55.6960 C.3     0  <0>0        0.0529
     11  C11       -0.1500   30.2940   57.3920 C.2     0  <0>0        0.2490
     12  O1        -0.8000   29.8820   58.3290 O.2     0  <0>0       -0.2727
     13  N1         0.8900   31.1530   57.4320 N.am    0  <0>0       -0.2086
     14  C12        1.3790   31.3950   56.2090 C.2     0  <0>0        0.3103
     15  O2         2.3160   32.1370   55.9910 O.2     0  <0>0       -0.2522
     16  N2         0.7150   30.7230   55.2500 N.am    0  <0>0       -0.2834
     17  H11        0.8940   30.7420   54.2970 H       0  <0>0        0.1513
     18  C13        1.4180   31.7490   58.6630 C.3     0  <0>0        0.1321
     19  C14        1.6190   33.2270   58.4600 C.ar    0  <0>0        0.0362
     20  C19        2.8790   33.7800   58.5990 C.ar    0  <0>0        0.0575
     21  C18        3.0650   35.1380   58.4070 C.ar    0  <0>0        0.0113
     22 Cl          4.2300   32.7690   59.0070 Cl      0  <0>0       -0.0824
     23  C17        1.9890   35.9450   58.0870 C.ar    0  <0>0        0.0032
     24  C16        0.7280   35.3950   57.9540 C.ar    0  <0>0        0.0294
     25  C15        0.5410   34.0360   58.1400 C.ar    0  <0>0        0.1386
     26  F1        -0.6910   33.4990   58.0100 F       0  <0>0       -0.2044
@<TRIPOS>BOND
     1     1     6   ar
     2     1     2   ar
     3     6     5   ar
     4     2     3   ar
     5     5     7    1
     6     5     4   ar
     7     3     4   ar
     8     7     8    1
     9     4    10    1
    10    17    16    1
    11    16     9    1
    12    16    14   am
    13     8     9    1
    14    10     9    1
    15     9    11    1
    16    15    14    2
    17    14    13   am
    18    11    13   am
    19    11    12    2
    20    13    18    1
    21    24    23   ar
    22    24    25   ar
    23    26    25    1
    24    23    21   ar
    25    25    19   ar
    26    21    20   ar
    27    19    20   ar
    28    19    18    1
    29    20    22    1
