@<TRIPOS>MOLECULE
ZINC40742030_replica-1.pdb
 29 31 0 0 0
SMALL
GASTEIGER

@<TRIPOS>ATOM
      1  C3         8.7370   34.6930   57.9660 C.ar    0  <0>0        0.1727
      2  C4         9.3430   34.4680   59.1920 C.ar    0  <0>0        0.0338
      3  C5         9.6810   35.5360   60.0020 C.ar    0  <0>0       -0.0397
      4  C6         9.4160   36.8290   59.5930 C.ar    0  <0>0        0.0083
      5  C7         8.8120   37.0620   58.3710 C.ar    0  <0>0        0.0942
      6  C8         8.4750   35.9940   57.5500 C.ar    0  <0>0        0.1831
      7 Cl          8.4790   38.6870   57.8600 Cl      0  <0>0       -0.0790
      8  O2         7.8860   36.2200   56.3450 O.3     0  <0>0       -0.4667
      9  C9         6.6130   36.8690   56.3580 C.3     0  <0>0        0.2330
     10  C10        5.5260   35.8450   56.1640 C.ar    0  <0>0        0.0319
     11  C15        4.7510   35.4460   57.2390 C.ar    0  <0>0        0.0594
     12  C14        3.7500   34.5090   57.0600 C.ar    0  <0>0        0.0408
     13 Cl          5.0330   36.1270   58.8110 Cl      0  <0>0       -0.0824
     14  C13        3.5300   33.9630   55.8070 C.ar    0  <0>0        0.1410
     15  C12        4.3090   34.3590   54.7330 C.ar    0  <0>0        0.0295
     16  F1         2.5550   33.0440   55.6320 F       0  <0>0       -0.2041
     17  C11        5.3050   35.2990   54.9130 C.ar    0  <0>0        0.0025
     18  O1         8.4030   33.6430   57.1680 O.3     0  <0>0       -0.4724
     19  C2         7.3200   32.8180   57.6020 C.3     0  <0>0        0.2057
     20  C1         6.7280   32.0800   56.3990 C.3     0  <0>0        0.0512
     21  C16       10.3400   35.2890   61.3350 C.3     0  <0>0       -0.0541
     22  N1        11.5280   34.4450   61.1450 N.4     0  <0>0        0.3878
     23  H15       11.2740   33.6190   60.6250 H       0  <0>0       -0.0839
     24  H25       12.2290   34.9610   60.6350 H       0  <0>0       -0.0839
     25  C17       12.0650   34.0530   62.4550 C.3     0  <0>0       -0.0615
     26  C21       11.5540   32.6520   62.8360 C.3     0  <0>0       -0.0213
     27  C20       12.7990   31.7550   62.9890 C.3     0  <0>0       -0.0022
     28  C19       13.9480   32.7490   63.2940 C.3     0  <0>0       -0.0022
     29  C18       13.6030   33.9580   62.3910 C.3     0  <0>0       -0.0213
@<TRIPOS>BOND
     1    15    17   ar
     2    15    14   ar
     3    17    10   ar
     4    16    14    1
     5    14    12   ar
     6    10     9    1
     7    10    11   ar
     8     8     9    1
     9     8     6    1
    10    20    19    1
    11    12    11   ar
    12    18    19    1
    13    18     1    1
    14    11    13    1
    15     6     1   ar
    16     6     5   ar
    17     7     5    1
    18     1     2   ar
    19     5     4   ar
    20     2     3   ar
    21     4     3   ar
    22     3    21    1
    23    23    22    1
    24    24    22    1
    25    22    21    1
    26    22    25    1
    27    29    25    1
    28    29    28    1
    29    25    26    1
    30    26    27    1
    31    27    28    1
