@<TRIPOS>MOLECULE
ZINC25344955_replica-1.pdb
 27 28 0 0 0
SMALL
GASTEIGER

@<TRIPOS>ATOM
      1  C10        2.9260   33.4050   56.5030 C.2     0  <0>0        0.0553
      2  C11        3.5180   33.8040   55.2980 C.2     0  <0>0        0.0009
      3  C12        4.7200   34.4520   55.2950 C.2     0  <0>0       -0.0101
      4  C13        5.3660   34.7210   56.5010 C.3     0  <0>0        0.1525
      5  C14        4.7820   34.3250   57.7250 C.2     0  <0>0        0.1333
      6  C15        3.5490   33.6660   57.7150 C.2     0  <0>0        0.0338
      7  N2         5.4290   34.5970   58.8830 N.2     0  <0>0       -0.3507
      8  C16        6.5830   35.2180   58.8950 C.1     0  <0>0        0.1010
      9  S1         7.3530   35.5300   60.4490 S.2     0  <0>0        0.0402
     10  N3         7.2160   35.6350   57.7590 N.am    0  <0>0       -0.1972
     11  C17        6.6620   35.4160   56.5440 C.2     0  <0>0        0.2481
     12  O2         7.2160   35.7820   55.5240 O.2     0  <0>0       -0.2731
     13  C9         1.6220   32.7020   56.4830 C.2     0  <0>0        0.2459
     14  N1         1.5160   31.4940   55.8950 N.am    0  <0>0       -0.3025
     15  H18        2.2930   31.0850   55.4840 H       0  <0>0        0.1497
     16  O1         0.6480   33.2160   56.9980 O.2     0  <0>0       -0.2701
     17  C2         0.2250   30.8010   55.8760 C.3     0  <0>0        0.0719
     18  C1         0.1940   29.7520   56.9900 C.3     0  <0>0        0.0213
     19  C3         0.0360   30.1130   54.5220 C.3     0  <0>0        0.0196
     20  C4        -0.8360   28.8690   54.6990 C.3     0  <0>0        0.0017
     21  C5        -1.1470   28.2650   53.3290 C.3     0  <0>0        0.0001
     22  C6        -0.1240   27.1720   53.0090 C.3     0  <0>0        0.0000
     23  C7         0.2510   26.4320   54.2950 C.3     0  <0>0        0.0000
     24  C8        -0.7290   26.1830   52.0100 C.3     0  <0>0        0.0000
     25  C18        8.5050   36.3240   57.8570 C.3     0  <0>0        0.1354
     26  C19        8.2720   37.8010   58.0540 C.2     0  <0>0       -0.0036
     27  C20        8.5320   38.6400   57.0820 C.2     0  <0>0       -0.0031
@<TRIPOS>BOND
     1    24    22    1
     2    22    21    1
     3    22    23    1
     4    21    20    1
     5    19    20    1
     6    19    17    1
     7     3     2    2
     8     3     4    1
     9     2     1    1
    10    15    14    1
    11    12    11    2
    12    17    14    1
    13    17    18    1
    14    14    13   am
    15    13     1    1
    16    13    16    2
    17     4    11    1
    18     4     5    1
    19     1     6    2
    20    11    10   am
    21    27    26    2
    22     6     5    1
    23     5     7    2
    24    10    25    1
    25    10     8    1
    26    25    26    1
    27     7     8    2
    28     8     9    2
