@<TRIPOS>MOLECULE
ZINC01046388_replica-1.pdb
 30 33 0 0 0
SMALL
GASTEIGER

@<TRIPOS>ATOM
      1  C2        14.1120   32.6300   63.9230 C.ar    0  <0>0        0.1384
      2  C3        13.3880   31.4680   63.6880 C.ar    0  <0>0        0.0370
      3  C4        12.2000   31.5230   62.9900 C.ar    0  <0>0        0.0053
      4  C5        11.7280   32.7480   62.5240 C.ar    0  <0>0        0.0256
      5  C6        12.4490   33.9170   62.7720 C.ar    0  <0>0       -0.0164
      6  C7        13.6400   33.8530   63.4640 C.ar    0  <0>0        0.0327
      7  C8        11.9230   35.2420   62.2870 C.3     0  <0>0        0.0313
      8  C9        11.2230   35.0800   60.9410 C.3     0  <0>0        0.0333
      9  C10       10.2120   33.9680   60.9980 C.2     0  <0>0        0.0053
     10  C11       10.4610   32.8260   61.7580 C.2     0  <0>0        0.1300
     11  N1         9.5930   31.8230   61.7880 N.2     0  <0>0       -0.3706
     12  C12        8.4540   31.8610   61.1210 C.2     0  <0>0        0.2709
     13  C13        8.1170   32.9800   60.3440 C.3     0  <0>0        0.2018
     14  C14        9.0220   34.0640   60.2830 C.2     0  <0>0        0.0001
     15  C22        6.8760   33.0270   59.6310 C.1     0  <0>0        0.0873
     16  N2         5.8920   33.0620   59.0640 N.1     0  <0>0       -0.1950
     17  O2         7.6040   30.8080   61.1840 O.2     0  <0>0       -0.4498
     18  C23        6.6660   30.7950   62.2620 C.3     0  <0>0        0.2550
     19  C15        8.7140   35.2680   59.4750 C.ar    0  <0>0       -0.0027
     20  C20        8.1970   36.4080   60.0860 C.ar    0  <0>0       -0.0003
     21  C19        7.9130   37.5260   59.3290 C.ar    0  <0>0        0.0038
     22  C18        8.1400   37.5160   57.9650 C.ar    0  <0>0        0.0714
     23  C17        8.6530   36.3870   57.3510 C.ar    0  <0>0        0.0038
     24  C16        8.9460   35.2650   58.0990 C.ar    0  <0>0       -0.0003
     25  C21        7.8270   38.7400   57.1430 C.3     0  <0>0        0.4186
     26  F1         9.0090   39.2430   56.5870 F       0  <0>0       -0.1659
     27  F2         6.9370   38.3990   56.1180 F       0  <0>0       -0.1659
     28  F3         7.2450   39.7150   57.9610 F       0  <0>0       -0.1659
     29  O1        15.2860   32.5710   64.6040 O.3     0  <0>0       -0.4714
     30  C1        15.8990   33.8150   64.9470 C.3     0  <0>0        0.2525
@<TRIPOS>BOND
     1    27    25    1
     2    26    25    1
     3    25    28    1
     4    25    22    1
     5    23    22   ar
     6    23    24   ar
     7    22    21   ar
     8    24    19   ar
     9    16    15    3
    10    21    20   ar
    11    19    20   ar
    12    19    14    1
    13    15    13    1
    14    14    13    1
    15    14     9    2
    16    13    12    1
    17     8     9    1
    18     8     7    1
    19     9    10    1
    20    12    17    1
    21    12    11    2
    22    17    18    1
    23    10    11    2
    24    10     4    1
    25     7     5    1
    26     4     5   ar
    27     4     3   ar
    28     5     6   ar
    29     3     2   ar
    30     6     1   ar
    31     2     1   ar
    32     1    29    1
    33    29    30    1
