@<TRIPOS>MOLECULE
ZINC58846064_replica-1.pdb
 34 38 0 0 0
SMALL
GASTEIGER

@<TRIPOS>ATOM
      1  C9        -0.1630   29.6830   56.5190 C.ar    0  <0>0        0.1249
      2  C10       -0.2500   30.4340   55.3610 C.ar    0  <0>0        0.0214
      3  C11       -0.0650   31.8000   55.4160 C.ar    0  <0>0        0.0154
      4  C12        0.2040   32.4210   56.6310 C.ar    0  <0>0        0.0408
      5  C13        0.2790   31.6710   57.7950 C.ar    0  <0>0       -0.0080
      6  C14        0.0940   30.2980   57.7280 C.ar    0  <0>0        0.0171
      7  C15        0.5260   32.3050   59.1220 C.3     0  <0>0        0.0255
      8  C16        1.9400   32.0950   59.5970 C.3     0  <0>0        0.0045
      9  C17        2.3660   33.1550   60.2380 C.3     0  <0>0        0.0004
     10  C18        1.2990   34.2260   60.2770 C.3     0  <0>0        0.0023
     11  C19        0.3230   33.8190   59.1480 C.3     0  <0>0        0.0263
     12  C20        0.7570   34.5140   57.8750 C.3     0  <0>0        0.0943
     13  N2         0.4060   33.7960   56.6680 N.pl3   0  <0>0       -0.3308
     14  H21        0.3310   34.2940   55.8390 H       0  <0>0        0.1471
     15  S1        -0.3890   27.9370   56.4530 S.O2    0  <0>0        0.0736
     16  O1        -1.6870   27.7150   55.9180 O.2     0  <0>0       -0.1499
     17  O2         0.0100   27.4260   57.7170 O.2     0  <0>0       -0.1499
     18  N1         0.6880   27.3450   55.3430 N.pl3   0  <0>0       -0.2153
     19  H13        1.6420   27.4330   55.4980 H       0  <0>0        0.1737
     20  C8         0.2240   26.7180   54.1850 C.ar    0  <0>0        0.0608
     21  C3         0.2420   25.3330   54.0880 C.ar    0  <0>0       -0.0076
     22  C4        -0.2220   24.7170   52.9410 C.ar    0  <0>0       -0.0030
     23  C5        -0.6980   25.4770   51.8910 C.ar    0  <0>0       -0.0002
     24  C6        -0.7130   26.8570   51.9810 C.ar    0  <0>0        0.0013
     25  C7        -0.2500   27.4800   53.1240 C.ar    0  <0>0        0.0155
     26  C2         0.7620   24.5030   55.2320 C.3     0  <0>0        0.0277
     27  C1         0.6310   23.0180   54.8850 C.3     0  <0>0        0.0051
     28  C21        2.2490   34.7210   57.9260 C.ar    0  <0>0        0.0229
     29  C26        2.7720   35.8410   58.5470 C.ar    0  <0>0        0.1377
     30  C25        4.1430   36.0280   58.5980 C.ar    0  <0>0        0.0294
     31  F1         1.9450   36.7500   59.1100 F       0  <0>0       -0.2045
     32  C24        4.9870   35.1000   58.0190 C.ar    0  <0>0        0.0023
     33  C23        4.4640   33.9840   57.3920 C.ar    0  <0>0       -0.0001
     34  C22        3.0950   33.7940   57.3460 C.ar    0  <0>0       -0.0005
@<TRIPOS>BOND
     1    23    24   ar
     2    23    22   ar
     3    24    25   ar
     4    22    21   ar
     5    25    20   ar
     6    21    20   ar
     7    21    26    1
     8    20    18    1
     9    27    26    1
    10    18    19    1
    11    18    15    1
    12     2     3   ar
    13     2     1   ar
    14     3     4   ar
    15    14    13    1
    16    16    15    2
    17    15     1    1
    18    15    17    2
    19     1     6   ar
    20     4    13    1
    21     4     5   ar
    22    13    12    1
    23    34    33   ar
    24    34    28   ar
    25    33    32   ar
    26     6     5   ar
    27     5     7    1
    28    12    28    1
    29    12    11    1
    30    28    29   ar
    31    32    30   ar
    32    29    30   ar
    33    29    31    1
    34     7    11    1
    35     7     8    1
    36    11    10    1
    37     8     9    1
    38     9    10    1
