@<TRIPOS>MOLECULE
ZINC21081813_replica-1.pdb
 24 25 0 0 0
SMALL
GASTEIGER

@<TRIPOS>ATOM
      1  C6         0.5380   32.9730   58.0540 C.ar    0  <0>0        0.1909
      2  N1        -0.0200   33.1260   56.8170 N.ar    0  <0>0       -0.3033
      3  H1        -0.4190   33.9380   56.4670 H       0  <0>0        0.1706
      4  C7         0.0800   31.9330   56.1580 C.ar    0  <0>0        0.2346
      5  N2         0.6770   31.0780   56.9540 N.ar    0  <0>0       -0.1110
      6  N3         0.9720   31.7390   58.1530 N.ar    0  <0>0       -0.1210
      7  N4        -0.3690   31.6700   54.8710 N.pl3   0  <0>0       -0.2051
      8  H13       -0.8000   32.3700   54.3560 H       0  <0>0        0.1775
      9  N5        -0.1990   30.3960   54.3160 N.2     0  <0>0       -0.1834
     10  C8        -1.2010   29.7960   53.7470 C.2     0  <0>0        0.0766
     11  C9        -2.5470   30.4720   53.6860 C.3     0  <0>0        0.0537
     12  C10       -1.0240   28.4540   53.1630 C.ar    0  <0>0        0.0151
     13  C15       -0.2800   27.4860   53.8430 C.ar    0  <0>0        0.0017
     14  C14       -0.1220   26.2310   53.2940 C.ar    0  <0>0        0.0067
     15  C13       -0.6880   25.9320   52.0660 C.ar    0  <0>0        0.0346
     16  C12       -1.4200   26.8900   51.3840 C.ar    0  <0>0        0.0067
     17 Br         -0.4600   24.2110   51.3190 Br      0  <0>0       -0.0490
     18  C11       -1.5910   28.1470   51.9250 C.ar    0  <0>0        0.0017
     19  S1         0.6610   34.2180   59.2950 S.3     0  <0>0       -0.0758
     20  C5         2.4350   34.5940   59.3640 C.3     0  <0>0        0.0652
     21  C4         2.7130   35.8820   58.5880 C.3     0  <0>0        0.0121
     22  C2         3.8380   35.6370   57.5800 C.3     0  <0>0        0.0009
     23  C1         4.1620   34.1430   57.5310 C.3     0  <0>0        0.0000
     24  C3         3.3920   36.1090   56.1950 C.3     0  <0>0        0.0000
@<TRIPOS>BOND
     1    17    15    1
     2    16    18   ar
     3    16    15   ar
     4    18    12   ar
     5    15    14   ar
     6    12    10    1
     7    12    13   ar
     8    14    13   ar
     9    11    10    1
    10    10     9    2
    11     9     7    1
    12     8     7    1
    13     7     4    1
    14     4     2   ar
    15     4     5   ar
    16    24    22    1
    17     3     2    1
    18     2     1   ar
    19     5     6   ar
    20    23    22    1
    21    22    21    1
    22     1     6   ar
    23     1    19    1
    24    21    20    1
    25    19    20    1
