@<TRIPOS>MOLECULE
ZINC37641144_replica-1.pdb
 26 29 0 0 0
SMALL
GASTEIGER

@<TRIPOS>ATOM
      1  N1         0.0580   29.9650   56.8580 N.ar    0  <0>0       -0.2447
      2  C9         0.0460   28.9730   55.9500 C.ar    0  <0>0        0.2660
      3  O1         0.6590   27.9420   56.1560 O.2     0  <0>0       -0.2668
      4  C10       -0.7210   29.1520   54.7000 C.ar    0  <0>0        0.0750
      5  C11       -0.8700   28.2010   53.5770 C.ar    0  <0>0       -0.0062
      6  C12       -1.6390   28.6200   52.5360 C.ar    0  <0>0        0.0267
      7  S1        -2.1830   30.2440   52.9900 S.2     0  <0>0       -0.0700
      8  C13       -1.3840   30.3670   54.5680 C.ar    0  <0>0        0.0947
      9  N2        -1.3220   31.3280   55.5390 N.ar    0  <0>0       -0.3014
     10  H1        -1.7940   32.1660   55.4190 H       0  <0>0        0.1709
     11  C14       -0.6120   31.1130   56.6640 C.ar    0  <0>0        0.3311
     12  O2        -0.5730   31.9780   57.5180 O.2     0  <0>0       -0.2464
     13  C15       -1.6760   27.5360   51.5020 C.2     0  <0>0       -0.0020
     14  C16       -0.8240   26.4250   52.0740 C.2     0  <0>0       -0.0396
     15  C17       -0.3830   26.8320   53.2500 C.3     0  <0>0        0.0413
     16  C18        0.5060   26.0120   54.1510 C.3     0  <0>0        0.0091
     17  C19       -0.5330   25.0970   51.4230 C.3     0  <0>0        0.0267
     18  C8         0.8190   29.7870   58.0970 C.3     0  <0>0        0.1399
     19  C6        -0.1150   29.3790   59.2060 C.ar    0  <0>0       -0.0036
     20  C5        -0.0600   30.0220   60.4290 C.ar    0  <0>0       -0.0240
     21  C4        -0.9170   29.6480   61.4470 C.ar    0  <0>0       -0.0048
     22  C20        0.9350   31.1320   60.6520 C.3     0  <0>0        0.0308
     23  C3        -1.8310   28.6310   61.2420 C.ar    0  <0>0       -0.0046
     24  C2        -1.8870   27.9880   60.0180 C.ar    0  <0>0       -0.0221
     25  C1        -2.8830   26.8800   59.7950 C.3     0  <0>0        0.0310
     26  C7        -1.0260   28.3600   59.0030 C.ar    0  <0>0       -0.0070
@<TRIPOS>BOND
     1    17    14    1
     2    13    14    2
     3    13     6    1
     4    14    15    1
     5     6     7   ar
     6     6     5   ar
     7     7     8   ar
     8    15     5    1
     9    15    16    1
    10     5     4   ar
    11     8     4   ar
    12     8     9   ar
    13     4     2   ar
    14    10     9    1
    15     9    11   ar
    16     2     3    2
    17     2     1   ar
    18    11     1   ar
    19    11    12    2
    20     1    18    1
    21    18    19    1
    22    26    19   ar
    23    26    24   ar
    24    19    20   ar
    25    25    24    1
    26    24    23   ar
    27    20    22    1
    28    20    21   ar
    29    23    21   ar
