@<TRIPOS>MOLECULE
ZINC40864581_replica-1.pdb
 24 26 0 0 0
SMALL
GASTEIGER

@<TRIPOS>ATOM
      1  C9         1.3290   31.8690   56.2900 C.2     0  <0>0        0.2132
      2  N2         2.3600   32.6920   56.2240 N.2     0  <0>0       -0.3842
      3  C10        2.4790   33.7120   57.0600 C.2     0  <0>0        0.1225
      4  C11        1.5170   33.9180   58.0100 C.3     0  <0>0        0.1247
      5  S1         0.4020   32.5670   57.6490 S.3     0  <0>0       -0.0593
      6  N1         1.0400   30.7600   55.5070 N.am    0  <0>0       -0.2509
      7  C8        -0.1570   30.6600   54.8950 C.2     0  <0>0        0.2516
      8  O2        -0.9830   31.5420   55.0290 O.2     0  <0>0       -0.2697
      9  H8         1.6990   30.0560   55.4010 H       0  <0>0        0.1580
     10  C5        -0.4650   29.4810   54.0640 C.ar    0  <0>0        0.0539
     11  C4         0.2250   28.2820   54.2640 C.ar    0  <0>0        0.0076
     12  C3        -0.0650   27.1840   53.4860 C.ar    0  <0>0        0.0370
     13  C2        -1.0440   27.2670   52.5020 C.ar    0  <0>0        0.1387
     14  C7        -1.7290   28.4570   52.2970 C.ar    0  <0>0        0.0370
     15  C6        -1.4480   29.5590   53.0740 C.ar    0  <0>0        0.0076
     16  O1        -1.3280   26.1820   51.7370 O.3     0  <0>0       -0.4714
     17  C1        -0.5140   25.0220   51.9290 C.3     0  <0>0        0.2525
     18  C12        3.6460   34.6240   56.9680 C.ar    0  <0>0        0.0264
     19  C17        4.5590   34.6980   58.0180 C.ar    0  <0>0        0.0027
     20  C16        5.6470   35.5430   57.9250 C.ar    0  <0>0        0.0059
     21  C15        5.8240   36.3240   56.7970 C.ar    0  <0>0        0.0301
     22  C14        4.9160   36.2590   55.7540 C.ar    0  <0>0        0.0059
     23  I1         7.4720   37.6110   56.6670 I       0  <0>0       -0.0425
     24  C13        3.8290   35.4130   55.8340 C.ar    0  <0>0        0.0027
@<TRIPOS>BOND
     1    16    17    1
     2    16    13    1
     3    14    13   ar
     4    14    15   ar
     5    13    12   ar
     6    15    10   ar
     7    12    11   ar
     8    10    11   ar
     9    10     7    1
    10     7     8    2
    11     7     6   am
    12     9     6    1
    13     6     1    1
    14    22    24   ar
    15    22    21   ar
    16    24    18   ar
    17     2     1    2
    18     2     3    2
    19     1     5    1
    20    23    21    1
    21    21    20   ar
    22    18     3    1
    23    18    19   ar
    24     3     4    1
    25     5     4    1
    26    20    19   ar
