@<TRIPOS>MOLECULE
ZINC59281834_replica-1.pdb
 22 25 0 0 0
SMALL
GASTEIGER

@<TRIPOS>ATOM
      1  C1         7.3900   38.6740   56.1550 C.ar    0  <0>0        0.0000
      2  C2         7.0730   37.4360   55.6010 C.ar    0  <0>0        0.0000
      3  C3         7.4350   36.2710   56.2040 C.ar    0  <0>0        0.0000
      4  C4         8.1450   36.3070   57.4150 C.ar    0  <0>0        0.0000
      5  C5         8.4790   37.6060   57.9990 C.ar    0  <0>0        0.0000
      6  C6         8.0750   38.7780   57.3240 C.ar    0  <0>0        0.0000
      7  C7         9.1840   37.6770   59.2040 C.ar    0  <0>0        0.0000
      8  C8         9.5740   36.5060   59.8570 C.ar    0  <0>0        0.0000
      9  C9        10.2860   36.5560   61.0740 C.ar    0  <0>0        0.0000
     10  C10       10.6510   35.3980   61.6850 C.ar    0  <0>0        0.0000
     11  C11       10.3390   34.1550   61.1400 C.ar    0  <0>0        0.0000
     12  C12        9.6540   34.0410   59.9680 C.ar    0  <0>0        0.0000
     13  C13        9.2480   35.1980   59.2870 C.ar    0  <0>0        0.0000
     14  C14        8.5340   35.1150   58.0680 C.ar    0  <0>0        0.0013
     15  C15        8.2170   33.8580   57.5110 C.2     0  <0>0        0.0199
     16  C16        7.0200   33.2470   57.8230 C.2     0  <0>0        0.1340
     17  S1         5.6970   33.8040   58.8890 S.3     0  <0>0       -0.0013
     18  C17        6.4980   31.9930   57.3910 C.1     0  <0>0        0.2198
     19  C18        4.6190   32.3960   58.6650 C.1     0  <0>0        0.0848
     20  N1         5.3330   31.6280   57.8260 N.2     0  <0>0       -0.2824
     21  S2         3.0790   32.1000   59.3490 S.2     0  <0>0        0.0320
     22  O1         7.2010   31.2040   56.5460 O.2     0  <0>0       -0.2081
@<TRIPOS>BOND
     1     2     1   ar
     2     2     3   ar
     3     1     6   ar
     4     3     4   ar
     5    22    18    2
     6     6     5   ar
     7    18    16    1
     8    18    20    2
     9     4     5   ar
    10     4    14   ar
    11    15    16    2
    12    15    14    1
    13    16    17    1
    14    20    19    2
    15     5     7   ar
    16    14    13   ar
    17    19    17    1
    18    19    21    2
    19     7     8   ar
    20    13     8   ar
    21    13    12   ar
    22     8     9   ar
    23    12    11   ar
    24     9    10   ar
    25    11    10   ar
