@<TRIPOS>MOLECULE
ZINC35233227_replica-1.pdb
 20 20 0 0 0
SMALL
GASTEIGER

@<TRIPOS>ATOM
      1  C5         9.3370   35.0970   58.5780 C.ar    0  <0>0        0.0623
      2  C6        10.1150   34.7780   59.6830 C.ar    0  <0>0        0.0156
      3  C7        10.3360   35.7230   60.6660 C.ar    0  <0>0        0.0013
      4  C8         9.7840   36.9850   60.5500 C.ar    0  <0>0        0.0014
      5  C9         9.0090   37.3060   59.4510 C.ar    0  <0>0        0.0199
      6  C10        8.7880   36.3670   58.4620 C.ar    0  <0>0        0.1272
      7  N1         9.1120   34.1440   57.5820 N.pl3   0  <0>0       -0.3310
      8  H10        9.6860   34.1140   56.8000 H       0  <0>0        0.1469
      9  C2         8.0080   33.1890   57.7170 C.3     0  <0>0        0.0991
     10  C1         8.5140   31.9180   58.4020 C.3     0  <0>0        0.0238
     11  C3         7.4640   32.8400   56.3310 C.3     0  <0>0        0.1616
     12  O1         6.0740   33.1660   56.2690 O.3     0  <0>0       -0.3494
     13  C4         5.6710   33.7570   55.0320 C.3     0  <0>0        0.1742
     14  S1         7.8070   36.7800   57.0580 S.O2    0  <0>0        0.0932
     15  O2         8.5230   36.2550   55.9490 O.2     0  <0>0       -0.1611
     16  O3         6.5050   36.3020   57.3710 O.2     0  <0>0       -0.1611
     17  C11        7.8110   38.5930   57.0010 C.3     0  <0>0        0.5262
     18  F1         7.0670   39.0270   55.8990 F       0  <0>0       -0.1500
     19  F2         7.2420   39.0970   58.1750 F       0  <0>0       -0.1500
     20  F3         9.1280   39.0530   56.8870 F       0  <0>0       -0.1500
@<TRIPOS>BOND
     1    13    12    1
     2    18    17    1
     3    15    14    2
     4    12    11    1
     5    11     9    1
     6     8     7    1
     7    20    17    1
     8    17    14    1
     9    17    19    1
    10    14    16    2
    11    14     6    1
    12     7     9    1
    13     7     1    1
    14     9    10    1
    15     6     1   ar
    16     6     5   ar
    17     1     2   ar
    18     5     4   ar
    19     2     3   ar
    20     4     3   ar
