@<TRIPOS>MOLECULE
ZINC49924459_replica-1.pdb
 25 26 0 0 0
SMALL
GASTEIGER

@<TRIPOS>ATOM
      1  C11        7.3190   36.6330   55.5390 C.3     0  <0>0        0.1521
      2  C8         8.0350   36.5420   56.8610 C.ar    0  <0>0        0.0059
      3  C7         8.0770   37.6380   57.7030 C.ar    0  <0>0       -0.0022
      4  C6         8.7340   37.5550   58.9160 C.ar    0  <0>0       -0.0045
      5  C5         9.3490   36.3740   59.2890 C.ar    0  <0>0       -0.0225
      6  C10        9.3120   35.2790   58.4450 C.ar    0  <0>0       -0.0045
      7  C9         8.6510   35.3620   57.2340 C.ar    0  <0>0       -0.0022
      8  C3        10.0650   36.2820   60.6110 C.3     0  <0>0        0.0223
      9  C4         9.1580   36.8190   61.7200 C.3     0  <0>0        0.0047
     10  C2        10.4140   34.8210   60.9020 C.3     0  <0>0        0.0044
     11  C1        11.6640   34.7600   61.7830 C.3     0  <0>0        0.0003
     12  C12        5.8140   36.7740   55.7820 C.3     0  <0>0        0.1213
     13  N1         5.3020   35.5470   56.3960 N.pl3   0  <0>0       -0.3307
     14  H17        5.7690   34.7070   56.2640 H       0  <0>0        0.1469
     15  C13        4.1410   35.5870   57.1720 C.ar    0  <0>0        0.0406
     16  C18        4.2140   35.3840   58.5450 C.ar    0  <0>0       -0.0094
     17  C17        3.0650   35.4300   59.3100 C.ar    0  <0>0       -0.0031
     18  C16        1.8420   35.6640   58.7100 C.ar    0  <0>0       -0.0002
     19  C15        1.7650   35.8610   57.3430 C.ar    0  <0>0        0.0012
     20  C14        2.9100   35.8230   56.5720 C.ar    0  <0>0        0.0140
     21  C19        5.5470   35.1220   59.1990 C.3     0  <0>0        0.0236
     22  C20        5.7360   36.0830   60.3740 C.3     0  <0>0        0.0047
     23  C21        5.5910   33.6790   59.7070 C.3     0  <0>0        0.0047
     24  O1         7.7930   37.7710   54.8180 O.3     0  <0>0       -0.3783
     25  H29        7.6820   37.7040   53.8590 H       0  <0>0        0.2109
@<TRIPOS>BOND
     1    25    24    1
     2    24     1    1
     3     1    12    1
     4     1     2    1
     5    12    13    1
     6    14    13    1
     7    13    15    1
     8    20    15   ar
     9    20    19   ar
    10     2     7   ar
    11     2     3   ar
    12    15    16   ar
    13     7     6   ar
    14    19    18   ar
    15     3     4   ar
    16     6     5   ar
    17    16    21    1
    18    16    17   ar
    19    18    17   ar
    20     4     5   ar
    21    21    23    1
    22    21    22    1
    23     5     8    1
    24     8    10    1
    25     8     9    1
    26    10    11    1
