@<TRIPOS>MOLECULE
ZINC49903265_replica-1.pdb
 24 25 0 0 0
SMALL
GASTEIGER

@<TRIPOS>ATOM
      1  C11        7.9380   38.0820   58.7310 C.3     0  <0>0        0.1344
      2  C8         8.8710   37.1080   59.4040 C.ar    0  <0>0        0.0043
      3  C7         9.4130   37.4100   60.6390 C.ar    0  <0>0       -0.0023
      4  C6        10.2680   36.5160   61.2560 C.ar    0  <0>0       -0.0045
      5  C5        10.5800   35.3200   60.6380 C.ar    0  <0>0       -0.0225
      6  C10       10.0430   35.0210   59.4010 C.ar    0  <0>0       -0.0045
      7  C9         9.1840   35.9120   58.7860 C.ar    0  <0>0       -0.0023
      8  C3        11.5120   34.3460   61.3110 C.3     0  <0>0        0.0223
      9  C4        10.7120   33.1520   61.8350 C.3     0  <0>0        0.0047
     10  C2        12.2180   35.0380   62.4790 C.3     0  <0>0        0.0044
     11  C1        13.2940   34.1110   63.0470 C.3     0  <0>0        0.0003
     12  C12        8.6010   38.6360   57.4690 C.3     0  <0>0        0.0550
     13  C13        7.6210   38.5520   56.2980 C.3     0  <0>0        0.0899
     14  N1         7.8090   37.2810   55.5930 N.pl3   0  <0>0       -0.3326
     15  H19        8.5610   37.1680   54.9900 H       0  <0>0        0.1468
     16  C14        6.9060   36.2340   55.7880 C.ar    0  <0>0        0.0446
     17  C19        7.3630   34.9240   55.8530 C.ar    0  <0>0        0.0140
     18  C18        6.4680   33.8910   56.0520 C.ar    0  <0>0       -0.0030
     19  C17        5.1160   34.1590   56.1740 C.ar    0  <0>0       -0.0218
     20  C16        4.6580   35.4620   56.1040 C.ar    0  <0>0       -0.0030
     21  C20        4.1420   33.0290   56.3850 C.3     0  <0>0        0.0310
     22  C15        5.5480   36.5000   55.9120 C.ar    0  <0>0        0.0140
     23  O1         7.6470   39.1580   59.6260 O.3     0  <0>0       -0.3800
     24  H27        6.9850   38.9430   60.2970 H       0  <0>0        0.2108
@<TRIPOS>BOND
     1    15    14    1
     2    14    16    1
     3    14    13    1
     4    16    17   ar
     5    16    22   ar
     6    17    18   ar
     7    22    20   ar
     8    18    19   ar
     9    20    19   ar
    10    19    21    1
    11    13    12    1
    12    12     1    1
    13     1     2    1
    14     1    23    1
    15     7     6   ar
    16     7     2   ar
    17     6     5   ar
    18     2     3   ar
    19    23    24    1
    20     5     4   ar
    21     5     8    1
    22     3     4   ar
    23     8     9    1
    24     8    10    1
    25    10    11    1
