@<TRIPOS>MOLECULE
ZINC63038448_replica-1.pdb
 20 20 0 0 0
SMALL
GASTEIGER

@<TRIPOS>ATOM
      1  C4         9.5200   36.1480   60.2470 C.ar    0  <0>0       -0.0201
      2  C5        10.0570   36.8150   61.3320 C.ar    0  <0>0       -0.0029
      3  C6        11.0590   36.2270   62.0790 C.ar    0  <0>0        0.0183
      4  C7        11.5250   34.9700   61.7400 C.ar    0  <0>0        0.1142
      5  C8        10.9880   34.3010   60.6570 C.ar    0  <0>0        0.0183
      6  C9         9.9810   34.8890   59.9120 C.ar    0  <0>0       -0.0029
      7  C3         8.4250   36.7900   59.4330 C.3     0  <0>0        0.0492
      8  C2         8.6950   38.2910   59.3110 C.3     0  <0>0        0.0068
      9  C1         8.6290   38.7040   57.8390 C.3     0  <0>0        0.0004
     10  C11        7.0790   36.5670   60.1230 C.3     0  <0>0        0.1145
     11  C12        6.0470   36.1040   59.0910 C.3     0  <0>0        0.0321
     12  O3         6.6410   37.7900   60.7170 O.3     0  <0>0       -0.3841
     13  H15        7.2930   38.5020   60.6800 H       0  <0>0        0.2103
     14  S1        12.8050   34.2190   62.6920 S.O2    0  <0>0        0.0920
     15  O1        13.9290   34.1820   61.8230 O.2     0  <0>0       -0.1612
     16  O2        12.8470   34.9700   63.8970 O.2     0  <0>0       -0.1612
     17  C10       12.2140   32.5370   63.0230 C.3     0  <0>0        0.5262
     18  F1        10.8530   32.5750   63.3460 F       0  <0>0       -0.1500
     19  F2        12.4020   31.7450   61.8860 F       0  <0>0       -0.1500
     20  F3        12.9320   31.9930   64.0940 F       0  <0>0       -0.1500
@<TRIPOS>BOND
     1     9     8    1
     2    11    10    1
     3     8     7    1
     4     7    10    1
     5     7     1    1
     6     6     1   ar
     7     6     5   ar
     8    10    12    1
     9     1     2   ar
    10     5     4   ar
    11    13    12    1
    12     2     3   ar
    13     4     3   ar
    14     4    14    1
    15    15    14    2
    16    19    17    1
    17    14    17    1
    18    14    16    2
    19    17    18    1
    20    17    20    1
