@<TRIPOS>MOLECULE
ZINC41200856_replica-1.pdb
 20 21 0 0 0
SMALL
GASTEIGER

@<TRIPOS>ATOM
      1  C8         5.0750   35.7330   56.7400 C.3     0  <0>0       -0.0014
      2  C7         5.8410   35.5530   58.0260 C.2     0  <0>0        0.1141
      3  S1         5.5560   34.4530   59.2670 S.3     0  <0>0       -0.0816
      4  C6         6.8990   34.9400   60.3390 C.3     0  <0>0        0.1183
      5  C5         7.4540   35.9380   59.6060 C.2     0  <0>0        0.0973
      6  N1         6.8860   36.2170   58.4500 N.2     0  <0>0       -0.4099
      7  C2         8.6600   36.6980   60.0950 C.3     0  <0>0        0.0436
      8  C1         9.9250   35.8840   59.8100 C.3     0  <0>0        0.0067
      9  C3         8.5370   36.9360   61.6020 C.3     0  <0>0        0.0067
     10  C4         8.7440   38.0420   59.3710 C.3     0  <0>0        0.0067
     11  C9         5.8560   35.0970   55.5890 C.3     0  <0>0       -0.0110
     12  C10        4.8970   34.7690   54.4420 C.3     0  <0>0       -0.0016
     13  C11        6.9230   36.0760   55.0950 C.3     0  <0>0       -0.0016
     14  C12        6.5280   33.8120   56.0760 C.3     0  <0>0       -0.0016
     15  N2         3.7620   35.0850   56.8590 N.4     0  <0>0        0.3910
     16  H21        3.4990   34.6920   55.9670 H       0  <0>0       -0.0837
     17  H27        3.8090   34.3510   57.5490 H       0  <0>0       -0.0837
     18  C13        2.7600   36.0800   57.2690 C.3     0  <0>0       -0.0614
     19  C15        1.8430   35.7190   58.4370 C.3     0  <0>0       -0.0234
     20  C14        1.2890   35.7480   57.0120 C.3     0  <0>0       -0.0234
@<TRIPOS>BOND
     1    12    11    1
     2    13    11    1
     3    11    14    1
     4    11     1    1
     5    16    15    1
     6     1    15    1
     7     1     2    1
     8    15    18    1
     9    15    17    1
    10    20    18    1
    11    20    19    1
    12    18    19    1
    13     2     6    2
    14     2     3    1
    15     6     5    2
    16     3     4    1
    17    10     7    1
    18     5     7    1
    19     5     4    1
    20     8     7    1
    21     7     9    1
