@<TRIPOS>MOLECULE
ZINC59343611_replica-1.pdb
 19 19 0 0 0
SMALL
GASTEIGER

@<TRIPOS>ATOM
      1  C7        10.8360   35.4870   61.1970 C.ar    0  <0>0        0.1885
      2  N2        10.1520   36.5930   61.4400 N.ar    0  <0>0       -0.1248
      3  N3         9.2620   37.0160   60.6530 N.ar    0  <0>0       -0.1332
      4  C8         8.9570   36.3780   59.5330 C.ar    0  <0>0        0.1606
      5  S1        10.1040   35.0060   59.6350 S.2     0  <0>0       -0.0242
      6  N1        11.8410   34.8740   61.9400 N.am    0  <0>0       -0.2627
      7  C6        11.6980   33.5940   62.3410 C.2     0  <0>0        0.2271
      8  O1        10.6950   32.9770   62.0520 O.2     0  <0>0       -0.2747
      9  H13       12.6430   35.3680   62.1710 H       0  <0>0        0.1568
     10  C4        12.7860   32.9310   63.1460 C.3     0  <0>0        0.0769
     11  C5        14.1500   33.4500   62.6850 C.3     0  <0>0        0.0096
     12  C3        12.7220   31.4170   62.9410 C.3     0  <0>0        0.0091
     13  C2        12.5040   30.7280   64.2900 C.3     0  <0>0        0.0005
     14  C1        12.2470   29.2360   64.0650 C.3     0  <0>0        0.0000
     15  S2         7.7670   36.7700   58.2940 S.3     0  <0>0       -0.0875
     16  C9         8.3340   35.8550   56.8350 C.3     0  <0>0        0.0539
     17  C10        7.6470   34.4880   56.7910 C.3     0  <0>0        0.0121
     18  C11        7.9850   36.6410   55.5700 C.3     0  <0>0        0.0112
     19  C12        7.3140   37.9600   55.9600 C.3     0  <0>0        0.0009
@<TRIPOS>BOND
     1    18    19    1
     2    18    16    1
     3    17    16    1
     4    16    15    1
     5    15     4    1
     6     4     5   ar
     7     4     3   ar
     8     5     1   ar
     9     3     2   ar
    10     1     2   ar
    11     1     6    1
    12     6     9    1
    13     6     7   am
    14     8     7    2
    15     7    10    1
    16    11    10    1
    17    12    10    1
    18    12    13    1
    19    14    13    1
