@<TRIPOS>MOLECULE
ZINC48961900_replica-1.pdb
 20 21 0 0 0
SMALL
GASTEIGER

@<TRIPOS>ATOM
      1  N1        -0.6170   29.6520   55.0180 N.pl3   0  <0>0       -0.1891
      2  C8         0.5360   30.5560   55.0490 C.3     0  <0>0        0.1391
      3  C7        -0.5980   28.5230   54.1950 C.ar    0  <0>0        0.0649
      4  C2         0.0360   27.3630   54.6190 C.ar    0  <0>0       -0.0065
      5  C1         0.7060   27.3200   55.9690 C.3     0  <0>0        0.0324
      6  C3         0.0460   26.2460   53.8060 C.ar    0  <0>0        0.0037
      7  C4        -0.5670   26.2850   52.5680 C.ar    0  <0>0        0.0343
      8  C5        -1.1950   27.4420   52.1390 C.ar    0  <0>0        0.0080
      9 Br         -0.5490   24.7550   51.4560 Br      0  <0>0       -0.0490
     10  C6        -1.2100   28.5610   52.9480 C.ar    0  <0>0        0.0163
     11  S1        -1.9430   29.9680   55.9600 S.O2    0  <0>0        0.0768
     12  O1        -1.8450   31.3290   56.3530 O.2     0  <0>0       -0.1497
     13  O2        -3.0680   29.4540   55.2620 O.2     0  <0>0       -0.1497
     14  C9        -1.7790   29.0070   57.4290 C.ar    0  <0>0        0.1275
     15  C12       -0.9010   29.3710   58.3940 C.ar    0  <0>0        0.0261
     16  S2        -1.1420   28.0910   59.6140 S.2     0  <0>0       -0.0942
     17  C13        0.0360   30.5510   58.4290 C.3     0  <0>0        0.0396
     18  C11       -2.3900   27.1510   58.7510 C.ar    0  <0>0        0.0087
     19  C10       -2.5410   27.8680   57.6100 C.ar    0  <0>0        0.0225
     20  C14       -3.0940   25.8900   59.1790 C.3     0  <0>0        0.0382
@<TRIPOS>BOND
     1     9     7    1
     2     8     7   ar
     3     8    10   ar
     4     7     6   ar
     5    10     3   ar
     6     6     4   ar
     7     3     4   ar
     8     3     1    1
     9     4     5    1
    10     1     2    1
    11     1    11    1
    12    13    11    2
    13    11    12    2
    14    11    14    1
    15    14    19   ar
    16    14    15   ar
    17    19    18   ar
    18    15    17    1
    19    15    16   ar
    20    18    20    1
    21    18    16   ar
