@<TRIPOS>MOLECULE
ZINC08967636_replica-1.pdb
 25 28 0 0 0
SMALL
GASTEIGER

@<TRIPOS>ATOM
      1  N2         1.0460   30.3990   55.9870 N.am    0  <0>0       -0.2537
      2  C11        0.0880   30.2210   55.0570 C.2     0  <0>0        0.2360
      3  O1        -0.6670   31.1340   54.7790 O.2     0  <0>0       -0.2740
      4  H11        1.6480   29.6710   56.2090 H       0  <0>0        0.1577
      5  C10        1.1720   31.6190   56.6280 C.2     0  <0>0        0.2172
      6  N1         1.9610   32.6270   56.3350 N.2     0  <0>0       -0.3803
      7  C9         1.9800   33.7680   57.0560 C.2     0  <0>0        0.1350
      8  C4         2.7790   34.9170   56.8520 C.2     0  <0>0        0.0037
      9  C8         1.0840   33.8160   58.1490 C.2     0  <0>0        0.0584
     10  C5         2.6690   36.0020   57.6820 C.2     0  <0>0       -0.0231
     11  C6         1.7780   36.0150   58.7450 C.3     0  <0>0        0.0524
     12  C7         0.9810   34.9080   58.9750 C.2     0  <0>0       -0.0123
     13  S1         0.2930   32.2290   58.0610 S.3     0  <0>0       -0.0377
     14  C2         3.7610   34.9480   55.7090 C.3     0  <0>0        0.0246
     15  C1         4.1010   36.4000   55.3690 C.3     0  <0>0        0.0048
     16  C3         5.0360   34.2060   56.1130 C.3     0  <0>0        0.0048
     17  C12       -0.0460   28.9200   54.3740 C.3     0  <0>0        0.1213
     18  C17       -0.7830   28.8130   53.1910 C.2     0  <0>0       -0.0053
     19  C16       -0.8900   27.5930   52.5780 C.2     0  <0>0        0.0408
     20  C15       -0.2830   26.4230   53.0940 C.2     0  <0>0        0.0821
     21  S2        -1.6890   26.9820   51.1140 S.3     0  <0>0       -0.0861
     22  C14        0.4560   26.5670   54.2930 C.2     0  <0>0        0.0154
     23  N3        -0.4940   25.3140   52.3600 N.2     0  <0>0       -0.2576
     24  C13        0.5690   27.7750   54.9000 C.2     0  <0>0       -0.0114
     25  C18       -1.2020   25.3220   51.2640 C.3     0  <0>0        0.1873
@<TRIPOS>BOND
     1    21    25    1
     2    21    19    1
     3    25    23    1
     4    23    20    2
     5    19    20    1
     6    19    18    2
     7    20    22    1
     8    18    17    1
     9    22    24    2
    10    17    24    1
    11    17     2    1
    12     3     2    2
    13     2     1   am
    14    15    14    1
    15    14    16    1
    16    14     8    1
    17     1     4    1
    18     1     5    1
    19     6     5    2
    20     6     7    2
    21     5    13    1
    22     8     7    1
    23     8    10    2
    24     7     9    1
    25    10    11    1
    26    13     9    1
    27     9    12    2
    28    11    12    1
