@<TRIPOS>MOLECULE
ZINC35451566_replica-1.pdb
 21 22 0 0 0
SMALL
GASTEIGER

@<TRIPOS>ATOM
      1  C15       11.9800   33.9050   62.1840 C.3     0  <0>0        0.3090
      2  C16       13.3390   33.7980   62.7380 C.1     0  <0>0        0.1218
      3  N2        14.3870   33.7150   63.1680 N.1     0  <0>0       -0.1920
      4  O2        11.6070   35.2820   62.0990 O.3     0  <0>0       -0.4593
      5  C12       10.7280   35.6250   61.1200 C.ar    0  <0>0        0.1402
      6  C11       10.0250   36.8170   61.2070 C.ar    0  <0>0        0.0382
      7  C10        9.1310   37.1660   60.2120 C.ar    0  <0>0        0.0174
      8  C9         8.9360   36.3230   59.1270 C.ar    0  <0>0        0.0448
      9  C14        9.6360   35.1260   59.0440 C.ar    0  <0>0        0.0174
     10  C13       10.5340   34.7810   60.0360 C.ar    0  <0>0        0.0382
     11  N1         8.0310   36.6750   58.1210 N.pl3   0  <0>0       -0.3340
     12  H12        7.0850   36.4830   58.2290 H       0  <0>0        0.1468
     13  C2         8.5090   37.3320   56.9020 C.3     0  <0>0        0.0695
     14  C1         8.6290   38.8370   57.1470 C.3     0  <0>0        0.0212
     15  C3         7.5180   37.0790   55.7640 C.3     0  <0>0        0.0274
     16  C4         7.3470   35.5720   55.5610 C.3     0  <0>0        0.0662
     17  C5         5.8830   35.2450   55.4360 C.ar    0  <0>0        0.1230
     18  O1         5.3700   34.0440   55.1200 O.2     0  <0>0       -0.4547
     19  C8         4.0300   34.1180   55.1030 C.ar    0  <0>0        0.1791
     20  C7         3.6710   35.3800   55.4010 C.ar    0  <0>0        0.0434
     21  C6         4.8650   36.1060   55.6160 C.ar    0  <0>0        0.0362
@<TRIPOS>BOND
     1    19    18   ar
     2    19    20   ar
     3    18    17   ar
     4    20    21   ar
     5    17    16    1
     6    17    21   ar
     7    16    15    1
     8    15    13    1
     9    13    14    1
    10    13    11    1
    11    11    12    1
    12    11     8    1
    13     9     8   ar
    14     9    10   ar
    15     8     7   ar
    16    10     5   ar
    17     7     6   ar
    18     5     6   ar
    19     5     4    1
    20     4     1    1
    21     1     2    1
    22     2     3    3
