@<TRIPOS>MOLECULE
ZINC04651106_replica-1.pdb
 31 35 0 0 0
SMALL
GASTEIGER

@<TRIPOS>ATOM
      1  C7         3.7490   32.0630   57.7740 C.2     0  <0>0        0.0009
      2  C8         4.5530   32.7880   56.9560 C.2     0  <0>0        0.0125
      3  C9         5.8130   32.2800   56.2770 C.3     0  <0>0        0.0297
      4  C10        6.6270   33.5830   56.0060 C.3     0  <0>0        0.0116
      5  C11        7.2980   33.9560   57.3290 C.3     0  <0>0        0.0053
      6  C12        6.3040   33.7520   58.4770 C.3     0  <0>0        0.0254
      7  C13        6.9450   34.1930   59.7620 C.2     0  <0>0       -0.0345
      8  C14        7.8940   35.0800   59.8140 C.2     0  <0>0       -0.0467
      9  C15        8.4600   35.4520   61.1740 C.3     0  <0>0        0.0509
     10  C16        8.4270   36.9780   61.3130 C.3     0  <0>0        0.1145
     11  C17        9.1720   37.6120   60.1380 C.3     0  <0>0        0.0299
     12  C18        8.4490   37.2820   58.8290 C.3     0  <0>0        0.0062
     13  C19        8.4670   35.7660   58.6080 C.3     0  <0>0        0.0150
     14  C20        7.7320   35.4190   57.3250 C.3     0  <0>0        0.0038
     15  C21        6.4840   36.2980   57.1790 C.3     0  <0>0        0.0007
     16  C22        5.8490   36.0040   55.8200 C.3     0  <0>0        0.0073
     17  C23        5.4740   34.5460   55.6670 C.3     0  <0>0        0.0555
     18  C24        4.3530   34.1380   56.5910 C.2     0  <0>0        0.1683
     19  O1         3.4380   34.8480   56.9580 O.2     0  <0>0       -0.2917
     20  C25        5.0200   34.2770   54.2310 C.3     0  <0>0        0.0077
     21  C26        9.9230   35.3230   58.4510 C.3     0  <0>0        0.0040
     22  C3         2.4790   32.6290   58.2440 C.ar    0  <0>0        0.0282
     23  C2         1.2500   32.6360   57.5430 C.ar    0  <0>0        0.0800
     24  C1         1.0100   32.0590   56.1710 C.3     0  <0>0        0.0540
     25  N2         0.3640   33.2320   58.2900 N.ar    0  <0>0       -0.1739
     26  N1         0.9660   33.6230   59.4900 N.ar    0  <0>0       -0.2532
     27  C4         2.2580   33.2580   59.4580 C.ar    0  <0>0        0.0571
     28  C5         0.3020   34.3200   60.5940 C.3     0  <0>0        0.1533
     29  C6         3.2780   33.4870   60.5440 C.3     0  <0>0        0.0517
     30  O2         7.0700   37.4270   61.3160 O.3     0  <0>0       -0.3841
     31  H36        6.9670   38.3680   61.1190 H       0  <0>0        0.2103
@<TRIPOS>BOND
     1    20    17    1
     2    17    16    1
     3    17     4    1
     4    17    18    1
     5    16    15    1
     6     4     3    1
     7     4     5    1
     8    24    23    1
     9     3     2    1
    10    18     2    1
    11    18    19    2
    12     2     1    2
    13    15    14    1
    14    14     5    1
    15    14    13    1
    16     5     6    1
    17    23    22   ar
    18    23    25   ar
    19     1    22    1
    20    22    27   ar
    21    25    26   ar
    22    21    13    1
    23     6     7    1
    24    13    12    1
    25    13     8    1
    26    12    11    1
    27    27    26   ar
    28    27    29    1
    29    26    28    1
    30     7     8    2
    31     8     9    1
    32    11    10    1
    33    31    30    1
    34     9    10    1
    35    10    30    1
