@<TRIPOS>MOLECULE
ZINC21660319_replica-1.pdb
 28 32 0 0 0
SMALL
GASTEIGER

@<TRIPOS>ATOM
      1  C1         0.3450   34.1080   60.0060 C.3     0  <0>0        0.0554
      2  C2         0.7460   33.8440   58.5770 C.2     0  <0>0        0.0986
      3  C3         0.5410   32.6730   57.8540 C.2     0  <0>0        0.0564
      4  C4         1.0780   32.9340   56.6190 C.3     0  <0>0        0.2948
      5  O1         1.5510   34.1740   56.6720 O.2     0  <0>0       -0.3560
      6  N1         1.3580   34.6710   57.7660 N.2     0  <0>0       -0.0853
      7  N2         1.0510   31.9870   55.6150 N.pl3   0  <0>0       -0.2985
      8  C5         0.2300   30.8950   55.7630 C.2     0  <0>0        0.0274
      9  C6        -0.3270   30.5600   56.9470 C.2     0  <0>0        0.0437
     10  C7        -0.0940   31.3670   58.2080 C.2     0  <0>0        0.0060
     11  C14       -1.1610   29.4330   57.0600 C.2     0  <0>0        0.1742
     12  O2        -1.6640   29.1730   58.1370 O.2     0  <0>0       -0.2913
     13  C15       -1.4440   28.5430   55.8840 C.3     0  <0>0        0.0739
     14  C16       -0.2570   28.6070   54.9160 C.3     0  <0>0        0.0356
     15  C17       -0.0350   30.0690   54.5240 C.3     0  <0>0        0.0458
     16  H6         1.6780   32.1160   54.7200 H       0  <0>0        0.1501
     17  C8         0.8160   30.6000   59.1330 C.ar    0  <0>0        0.0000
     18  C13        2.0300   30.1250   58.6720 C.ar    0  <0>0       -0.0000
     19  C12        2.8640   29.4230   59.5210 C.ar    0  <0>0       -0.0000
     20  C11        2.4850   29.1950   60.8310 C.ar    0  <0>0       -0.0000
     21  C10        1.2710   29.6690   61.2920 C.ar    0  <0>0       -0.0000
     22  C9         0.4380   30.3750   60.4440 C.ar    0  <0>0       -0.0000
     23  C18       -0.5570   27.7920   53.6860 C.ar    0  <0>0       -0.0217
     24  C23       -0.1290   26.4800   53.6050 C.ar    0  <0>0       -0.0043
     25  C22       -0.4050   25.7310   52.4760 C.ar    0  <0>0       -0.0003
     26  C21       -1.1100   26.2940   51.4280 C.ar    0  <0>0       -0.0000
     27  C20       -1.5390   27.6060   51.5100 C.ar    0  <0>0       -0.0003
     28  C19       -1.2670   28.3530   52.6410 C.ar    0  <0>0       -0.0043
@<TRIPOS>BOND
     1    26    27   ar
     2    26    25   ar
     3    27    28   ar
     4    25    24   ar
     5    28    23   ar
     6    24    23   ar
     7    23    14    1
     8    15    14    1
     9    15     8    1
    10    16     7    1
    11    14    13    1
    12     7     8    1
    13     7     4    1
    14     8     9    2
    15    13    11    1
    16     4     5    1
    17     4     3    1
    18     5     6    1
    19     9    11    1
    20     9    10    1
    21    11    12    2
    22     6     2    2
    23     3    10    2
    24     3     2    1
    25    10    17    1
    26     2     1    1
    27    18    17   ar
    28    18    19   ar
    29    17    22   ar
    30    19    20   ar
    31    22    21   ar
    32    20    21   ar
