@<TRIPOS>MOLECULE
ZINC66270058_replica-1.pdb
 22 24 0 0 0
SMALL
GASTEIGER

@<TRIPOS>ATOM
      1  C8        -0.8690   29.1260   54.5710 C.2     0  <0>0        0.1568
      2  N1        -0.0150   30.1090   54.7880 N.2     0  <0>0       -0.3945
      3  C9        -0.2080   30.8940   55.8380 C.2     0  <0>0        0.1741
      4  C10       -1.2810   30.6600   56.6570 C.3     0  <0>0        0.1281
      5  S1        -2.0120   29.3320   55.9260 S.3     0  <0>0       -0.0746
      6  C11        0.7190   32.0020   56.1220 C.2     0  <0>0        0.2773
      7  O1         0.2920   33.0610   56.5420 O.2     0  <0>0       -0.2673
      8  N2         2.0420   31.8440   55.9180 N.am    0  <0>0       -0.2587
      9  H9         2.3830   30.9990   55.5840 H       0  <0>0        0.1571
     10  C12        2.9170   32.8890   56.1860 C.ar    0  <0>0        0.1655
     11  S2         3.6650   33.2800   57.6420 S.2     0  <0>0       -0.0557
     12  C14        4.5750   34.7070   57.0770 C.ar    0  <0>0        0.0293
     13  C13        4.1960   34.7510   55.7760 C.ar    0  <0>0        0.1030
     14  C15        5.5050   35.6180   57.8380 C.3     0  <0>0        0.0399
     15  N3         3.3600   33.8160   55.3640 N.ar    0  <0>0       -0.2227
     16  C7        -0.8810   28.1220   53.4850 C.ar    0  <0>0        0.0316
     17  C2        -0.2470   26.8910   53.6620 C.ar    0  <0>0       -0.0189
     18  C1         0.4520   26.5820   54.9600 C.3     0  <0>0        0.0311
     19  C3        -0.2660   25.9570   52.6480 C.ar    0  <0>0       -0.0042
     20  C4        -0.9080   26.2390   51.4550 C.ar    0  <0>0       -0.0003
     21  C5        -1.5330   27.4600   51.2710 C.ar    0  <0>0        0.0001
     22  C6        -1.5210   28.4030   52.2770 C.ar    0  <0>0        0.0027
@<TRIPOS>BOND
     1    21    20   ar
     2    21    22   ar
     3    20    19   ar
     4    22    16   ar
     5    19    17   ar
     6    16    17   ar
     7    16     1    1
     8    17    18    1
     9     1     2    2
    10     1     5    1
    11     2     3    2
    12    15    13   ar
    13    15    10   ar
    14     9     8    1
    15    13    12   ar
    16     3     6    1
    17     3     4    1
    18     8     6   am
    19     8    10    1
    20     5     4    1
    21     6     7    2
    22    10    11   ar
    23    12    11   ar
    24    12    14    1
