@<TRIPOS>MOLECULE
ZINC39842485_replica-1.pdb
 32 36 0 0 0
SMALL
GASTEIGER

@<TRIPOS>ATOM
      1  C9        -0.3360   29.3720   56.9290 C.ar    0  <0>0        0.1028
      2  C10       -0.3910   30.5730   56.0850 C.ar    0  <0>0        0.0417
      3  C11       -0.5280   30.1260   54.7820 C.ar    0  <0>0        0.1020
      4  N1        -0.5570   28.7820   54.8100 N.ar    0  <0>0       -0.2282
      5  N2        -0.4340   28.3350   56.1280 N.ar    0  <0>0       -0.1651
      6  C18       -0.3140   31.9660   56.5330 C.2     0  <0>0        0.0439
      7  C19        0.8980   32.5560   56.7170 C.2     0  <0>0        0.1841
      8  O2         2.1020   31.9670   56.5250 O.3     0  <0>0       -0.4502
      9  C20        1.1150   33.8920   57.1520 C.2     0  <0>0        0.2327
     10  C26        3.1170   32.8170   56.7900 C.ar    0  <0>0        0.1486
     11  C21        2.5810   34.0490   57.1940 C.ar    0  <0>0        0.0774
     12  C25        4.4980   32.6670   56.7330 C.ar    0  <0>0        0.0385
     13  C22        3.4250   35.1060   57.5340 C.ar    0  <0>0        0.0177
     14  C23        4.7920   34.9360   57.4700 C.ar    0  <0>0        0.0580
     15  C24        5.3230   33.7180   57.0710 C.ar    0  <0>0        0.0145
     16 Cl          5.8490   36.2480   57.8900 Cl      0  <0>0       -0.0822
     17  O1         0.2720   34.7280   57.4290 O.2     0  <0>0       -0.2832
     18  C6        -0.1920   29.3370   58.4030 C.ar    0  <0>0        0.0194
     19  C5        -1.2800   28.9860   59.2030 C.ar    0  <0>0        0.0021
     20  C4        -1.1430   28.9540   60.5740 C.ar    0  <0>0        0.0062
     21  C3         0.0770   29.2710   61.1600 C.ar    0  <0>0        0.0252
     22  C8         1.1620   29.6260   60.3650 C.ar    0  <0>0        0.0062
     23  C7         1.0320   29.6550   58.9940 C.ar    0  <0>0        0.0021
     24  S1         0.2480   29.2290   62.9140 S.3     0  <0>0       -0.1137
     25  C2        -0.7200   30.6530   63.4840 C.3     0  <0>0        0.0622
     26  C1        -0.2350   31.9170   62.7720 C.3     0  <0>0        0.0129
     27  C12       -0.6870   27.9540   53.6870 C.ar    0  <0>0        0.0828
     28  C17       -0.1380   26.6790   53.6960 C.ar    0  <0>0        0.0191
     29  C16       -0.2730   25.8640   52.5890 C.ar    0  <0>0        0.0015
     30  C15       -0.9430   26.3210   51.4690 C.ar    0  <0>0        0.0001
     31  C14       -1.4860   27.5930   51.4560 C.ar    0  <0>0        0.0015
     32  C13       -1.3590   28.4110   52.5610 C.ar    0  <0>0        0.0191
@<TRIPOS>BOND
     1    31    30   ar
     2    31    32   ar
     3    30    29   ar
     4    32    27   ar
     5    29    28   ar
     6    27    28   ar
     7    27     4    1
     8     3     4   ar
     9     3     2   ar
    10     4     5   ar
    11     2     6    1
    12     2     1   ar
    13     5     1   ar
    14     8     7    1
    15     8    10    1
    16     6     7    2
    17     7     9    1
    18    12    10   ar
    19    12    15   ar
    20    10    11   ar
    21     1    18    1
    22    15    14   ar
    23     9    11    1
    24     9    17    2
    25    11    13   ar
    26    14    13   ar
    27    14    16    1
    28    18    23   ar
    29    18    19   ar
    30    23    22   ar
    31    19    20   ar
    32    22    21   ar
    33    20    21   ar
    34    21    24    1
    35    26    25    1
    36    24    25    1
