@<TRIPOS>MOLECULE
ZINC59824743_replica-1.pdb
 26 28 0 0 0
SMALL
GASTEIGER

@<TRIPOS>ATOM
      1  C13        0.9980   31.9090   58.4550 C.ar    0  <0>0        0.1228
      2  C14        1.0050   30.6450   59.0180 C.ar    0  <0>0        0.0206
      3  C15        0.6510   30.4720   60.3390 C.ar    0  <0>0        0.0125
      4  C16        0.2860   31.5770   61.1120 C.ar    0  <0>0        0.0791
      5  C17        0.2820   32.8510   60.5390 C.ar    0  <0>0        0.0686
      6  C18        0.6440   33.0090   59.2140 C.ar    0  <0>0        0.0320
      7 Cl         -0.1700   34.2320   61.4880 Cl      0  <0>0       -0.0815
      8  C19       -0.0820   31.4050   62.4840 C.1     0  <0>0        0.1013
      9  N2        -0.3760   31.2690   63.5740 N.1     0  <0>0       -0.1908
     10  S1         1.4530   32.1190   56.7660 S.O2    0  <0>0        0.0605
     11  O1         2.8710   32.2200   56.7370 O.2     0  <0>0       -0.1530
     12  O2         0.6070   33.1310   56.2400 O.2     0  <0>0       -0.1530
     13  N1         1.0630   30.7160   55.9760 N.3     0  <0>0       -0.1766
     14  H12        1.7040   29.9890   55.9340 H       0  <0>0        0.1491
     15  C2        -0.2490   30.5760   55.3400 C.3     0  <0>0        0.0977
     16  C1        -1.3380   30.5640   56.4150 C.3     0  <0>0        0.0237
     17  C3        -0.2950   29.2850   54.5640 C.ar    0  <0>0       -0.0064
     18  C12       -1.0400   29.2120   53.4270 C.ar    0  <0>0       -0.0029
     19  C11       -1.0800   28.0110   52.6970 C.ar    0  <0>0       -0.0003
     20  C6        -0.3520   26.8890   53.1650 C.ar    0  <0>0       -0.0000
     21  C10       -1.8340   27.9000   51.5170 C.ar    0  <0>0       -0.0000
     22  C5         0.4010   27.0010   54.3460 C.ar    0  <0>0       -0.0003
     23  C7        -0.3970   25.6870   52.4390 C.ar    0  <0>0       -0.0000
     24  C4         0.4210   28.1810   55.0240 C.ar    0  <0>0       -0.0029
     25  C8        -1.1380   25.6170   51.3000 C.ar    0  <0>0       -0.0000
     26  C9        -1.8540   26.7200   50.8390 C.ar    0  <0>0       -0.0000
@<TRIPOS>BOND
     1    26    25   ar
     2    26    21   ar
     3    25    23   ar
     4    21    19   ar
     5    23    20   ar
     6    19    20   ar
     7    19    18   ar
     8    20    22   ar
     9    18    17   ar
    10    22    24   ar
    11    17    24   ar
    12    17    15    1
    13    15    13    1
    14    15    16    1
    15    14    13    1
    16    13    10    1
    17    12    10    2
    18    11    10    2
    19    10     1    1
    20     1     2   ar
    21     1     6   ar
    22     2     3   ar
    23     6     5   ar
    24     3     4   ar
    25     5     4   ar
    26     5     7    1
    27     4     8    1
    28     8     9    3
