@<TRIPOS>MOLECULE
ZINC33935899_replica-1.pdb
 24 25 0 0 0
SMALL
GASTEIGER

@<TRIPOS>ATOM
      1  C5         5.9550   35.9100   58.5260 C.ar    0  <0>0        0.0373
      2  C6         4.8930   35.5470   57.7580 C.ar    0  <0>0        0.0231
      3  C7         5.3640   35.5990   56.3610 C.ar    0  <0>0        0.0663
      4  C8         6.6720   35.9900   56.4180 C.ar    0  <0>0        0.0415
      5  N1         7.0120   36.1780   57.7080 N.ar    0  <0>0       -0.3338
      6  C13        7.5820   36.1850   55.2330 C.3     0  <0>0        0.0501
      7  C15        3.5410   35.1760   58.2280 C.ar    0  <0>0        0.0307
      8  S1         2.8200   33.5520   58.4080 S.2     0  <0>0       -0.0864
      9  C18        1.2170   34.0540   59.0130 C.ar    0  <0>0        0.0354
     10  C17        1.3300   35.4050   59.0320 C.ar    0  <0>0        0.0075
     11  C16        2.5140   35.9860   58.6320 C.ar    0  <0>0        0.0070
     12  C4         5.9600   36.0070   60.0290 C.3     0  <0>0        0.0438
     13  C3         5.6610   34.6340   60.6310 C.3     0  <0>0        0.0062
     14  C2         6.8410   33.6950   60.3730 C.3     0  <0>0        0.0004
     15  C1         6.3770   32.5160   59.5160 C.3     0  <0>0        0.0000
     16  C14        4.5830   35.2910   55.1530 C.2     0  <0>0        0.2439
     17  O1         4.8800   34.3320   54.4660 O.2     0  <0>0       -0.2703
     18  N2         3.5400   36.0710   54.8080 N.am    0  <0>0       -0.3253
     19  H22        3.3030   36.8350   55.3560 H       0  <0>0        0.1453
     20  H23        3.0250   35.8680   54.0110 H       0  <0>0        0.1453
     21  C9         8.3350   36.6060   58.1680 C.3     0  <0>0        0.1054
     22  C10        9.2390   35.3820   58.3300 C.3     0  <0>0        0.0245
     23  C11        9.9900   35.4760   59.6590 C.3     0  <0>0        0.0020
     24  C12        9.6150   36.7810   60.3660 C.3     0  <0>0        0.0001
@<TRIPOS>BOND
     1    20    18    1
     2    17    16    2
     3    18    16   am
     4    18    19    1
     5    16     3    1
     6     6     4    1
     7     3     4   ar
     8     3     2   ar
     9     4     5   ar
    10     5    21    1
    11     5     1   ar
    12     2     7    1
    13     2     1   ar
    14    21    22    1
    15     7     8   ar
    16     7    11   ar
    17    22    23    1
    18     8     9   ar
    19     1    12    1
    20    11    10   ar
    21     9    10   ar
    22    15    14    1
    23    23    24    1
    24    12    13    1
    25    14    13    1
