@<TRIPOS>MOLECULE
ZINC44731115_replica-1.pdb
 21 23 0 0 0
SMALL
GASTEIGER

@<TRIPOS>ATOM
      1  N1         6.7140   36.6390   58.0940 N.pl3   0  <0>0       -0.2756
      2  C9         6.0190   35.7940   58.9360 C.3     0  <0>0        0.1499
      3  C10        6.1660   35.4200   60.2650 C.2     0  <0>0        0.0010
      4  C11        5.2790   34.5280   60.8280 C.2     0  <0>0        0.0043
      5  C12        4.2370   34.0010   60.0750 C.2     0  <0>0        0.0366
      6  C13        4.0760   34.3610   58.7570 C.2     0  <0>0        0.0363
      7  C14        4.9670   35.2640   58.1700 C.2     0  <0>0        0.1329
      8  N2         5.0720   35.8010   56.9270 N.2     0  <0>0       -0.3925
      9  C15        6.0910   36.6090   56.8850 C.2     0  <0>0        0.1769
     10 Br          3.0320   32.7790   60.8690 Br      0  <0>0       -0.0489
     11  C7         7.9000   37.4280   58.4400 C.3     0  <0>0        0.1007
     12  C8         7.4990   38.5620   59.3860 C.3     0  <0>0        0.0265
     13  C4         8.9110   36.5410   59.1200 C.ar    0  <0>0        0.0288
     14  C3         9.5210   36.7670   60.3750 C.ar    0  <0>0        0.0330
     15  C2        10.3520   35.7320   60.5960 C.ar    0  <0>0        0.1225
     16  C1        11.2190   35.5430   61.8140 C.3     0  <0>0        0.0724
     17  O1        10.2830   34.8990   59.5440 O.2     0  <0>0       -0.4623
     18  C5         9.4050   35.3820   58.6490 C.ar    0  <0>0        0.1203
     19  C6         9.0420   34.7370   57.3360 C.3     0  <0>0        0.0722
     20  C16        6.5200   37.3940   55.6730 C.3     0  <0>0        0.1692
     21 Cl          7.7380   36.4450   54.7420 Cl      0  <0>0       -0.1041
@<TRIPOS>BOND
     1    21    20    1
     2    20     9    1
     3     9     8    2
     4     9     1    1
     5     8     7    2
     6    19    18    1
     7     1    11    1
     8     1     2    1
     9     7     6    1
    10     7     2    1
    11    11    13    1
    12    11    12    1
    13    18    13   ar
    14    18    17   ar
    15     6     5    2
    16     2     3    1
    17    13    14   ar
    18    17    15   ar
    19     5     4    1
    20     5    10    1
    21     3     4    2
    22    14    15   ar
    23    15    16    1
