@<TRIPOS>MOLECULE
ZINC33261145_replica-1.pdb
 30 32 0 0 0
SMALL
GASTEIGER

@<TRIPOS>ATOM
      1  C12        8.7180   36.8120   58.5110 C.ar    0  <0>0        0.1354
      2  C13        9.2520   35.5320   58.3840 C.ar    0  <0>0        0.0403
      3  C14       10.0280   35.0060   59.3910 C.ar    0  <0>0        0.0080
      4  C15       10.2690   35.7530   60.5480 C.ar    0  <0>0        0.0536
      5  C16        9.7270   37.0350   60.6740 C.ar    0  <0>0        0.0080
      6  C17        8.9570   37.5580   59.6620 C.ar    0  <0>0        0.0403
      7  N3         7.9380   37.3430   57.4870 N.pl3   0  <0>0       -0.2026
      8  H10        8.1760   38.3340   57.0720 H       0  <0>0        0.2982
      9  C10        6.8600   36.6240   56.9920 C.2     0  <0>0        0.3044
     10  C9         5.7770   36.3180   57.8150 C.3     0  <0>0        0.1622
     11  C8         4.7180   35.5940   57.2700 C.2     0  <0>0        0.0703
     12  N2         4.7810   35.2240   55.9900 N.2     0  <0>0       -0.2225
     13  C11        5.8230   35.5340   55.2470 C.3     0  <0>0        0.3911
     14  N1         6.8440   36.2120   55.7270 N.2     0  <0>0       -0.0405
     15  C6         3.5410   35.2400   58.1000 C.ar    0  <0>0        0.0136
     16  C5         2.3130   35.8580   57.8700 C.ar    0  <0>0        0.0012
     17  C4         1.2200   35.5240   58.6440 C.ar    0  <0>0       -0.0003
     18  C3         1.3410   34.5780   59.6460 C.ar    0  <0>0       -0.0043
     19  C2         2.5590   33.9610   59.8780 C.ar    0  <0>0       -0.0218
     20  C1         2.6840   32.9320   60.9710 C.3     0  <0>0        0.0310
     21  C7         3.6570   34.2840   59.1070 C.ar    0  <0>0       -0.0031
     22  C18       11.0970   35.1890   61.6310 C.2     0  <0>0        0.2458
     23  O1        11.6920   35.9310   62.3910 O.2     0  <0>0       -0.2701
     24  N4        11.1940   33.8530   61.7810 N.am    0  <0>0       -0.3009
     25  H15       10.6560   33.1840   61.0950 H       0  <0>0        0.1497
     26  C19       12.0160   33.2950   62.8570 C.3     0  <0>0        0.0897
     27  C20       11.5840   31.8530   63.1320 C.3     0  <0>0        0.0213
     28  C21       12.8240   30.9690   63.2850 C.3     0  <0>0        0.0017
     29  C22       14.0100   31.8280   63.7280 C.3     0  <0>0        0.0001
     30  C23       12.5550   29.8900   64.3350 C.3     0  <0>0        0.0001
@<TRIPOS>BOND
     1    13    14    1
     2    13    12    1
     3    14     9    2
     4    12    11    2
     5     9     7    1
     6     9    10    1
     7     8     7    1
     8    11    10    1
     9    11    15    1
    10     7     1    1
    11    16    15   ar
    12    16    17   ar
    13    15    21   ar
    14     2     1   ar
    15     2     3   ar
    16     1     6   ar
    17    17    18   ar
    18    21    19   ar
    19     3     4   ar
    20    18    19   ar
    21     6     5   ar
    22    19    20    1
    23     4     5   ar
    24     4    22    1
    25    25    24    1
    26    22    24   am
    27    22    23    2
    28    24    26    1
    29    26    27    1
    30    27    28    1
    31    28    29    1
    32    28    30    1
