@<TRIPOS>MOLECULE
ZINC66163856_replica-1.pdb
 22 23 0 0 0
SMALL
GASTEIGER

@<TRIPOS>ATOM
      1  C9        -0.5400   30.3390   54.4370 C.3     0  <0>0        0.1312
      2  N1        -0.4850   28.8750   54.4220 N.pl3   0  <0>0       -0.3300
      3  H11       -0.1690   28.3930   55.2020 H       0  <0>0        0.1469
      4  C6        -0.8860   28.1720   53.2830 C.ar    0  <0>0        0.0404
      5  C5        -1.6890   28.7880   52.3320 C.ar    0  <0>0        0.0140
      6  C4        -2.0840   28.0910   51.2070 C.ar    0  <0>0        0.0009
      7  C3        -1.6810   26.7810   51.0280 C.ar    0  <0>0       -0.0045
      8  C2        -0.8810   26.1640   51.9730 C.ar    0  <0>0       -0.0246
      9  C1        -0.4440   24.7360   51.7720 C.3     0  <0>0        0.0307
     10  C7        -0.4880   26.8540   53.1020 C.ar    0  <0>0       -0.0127
     11  C8         0.3790   26.1790   54.1350 C.3     0  <0>0        0.0320
     12  C10       -1.3440   30.8050   55.6520 C.3     0  <0>0        0.1854
     13  C11       -2.8010   30.3620   55.5000 C.3     0  <0>0        0.0491
     14  O1        -0.7920   30.2310   56.8380 O.3     0  <0>0       -0.4774
     15  C12       -0.1520   31.0740   57.6920 C.ar    0  <0>0        0.1387
     16  C17       -0.1430   32.4380   57.4430 C.ar    0  <0>0        0.0400
     17  C16        0.5030   33.2940   58.3130 C.ar    0  <0>0        0.0400
     18  C15        1.1500   32.7880   59.4310 C.ar    0  <0>0        0.1389
     19  C14        1.1450   31.4230   59.6770 C.ar    0  <0>0        0.0400
     20  C13        0.4960   30.5680   58.8100 C.ar    0  <0>0        0.0400
     21  O2         1.7890   33.6310   60.2860 O.3     0  <0>0       -0.4714
     22  C18        3.1620   33.3490   60.5710 C.3     0  <0>0        0.2525
@<TRIPOS>BOND
     1     7     6   ar
     2     7     8   ar
     3     6     5   ar
     4     9     8    1
     5     8    10   ar
     6     5     4   ar
     7    10     4   ar
     8    10    11    1
     9     4     2    1
    10     2     1    1
    11     2     3    1
    12     1    12    1
    13    13    12    1
    14    12    14    1
    15    14    15    1
    16    16    15   ar
    17    16    17   ar
    18    15    20   ar
    19    17    18   ar
    20    20    19   ar
    21    18    19   ar
    22    18    21    1
    23    21    22    1
