@<TRIPOS>MOLECULE
ZINC03168593_replica-1.pdb
 24 24 0 0 0
SMALL
GASTEIGER

@<TRIPOS>ATOM
      1  C5         8.3440   35.6520   58.0430 C.ar    0  <0>0        0.0106
      2  C6         9.3230   35.9830   58.9550 C.ar    0  <0>0        0.0003
      3  C7         9.7050   35.0620   59.9330 C.ar    0  <0>0        0.0220
      4  C8         9.0950   33.8050   59.9800 C.ar    0  <0>0        0.0003
      5  C9         8.1140   33.4840   59.0680 C.ar    0  <0>0        0.0106
      6  C10        7.7370   34.4030   58.0970 C.ar    0  <0>0        0.1255
      7  C15       10.7530   35.4120   60.9100 C.2     0  <0>0        0.1400
      8  N1        11.6140   34.5200   61.2830 N.2     0  <0>0       -0.0807
      9  O2        12.6200   34.8570   62.2210 O.2     0  <0>0       -0.3649
     10  C16       12.7340   33.9350   63.3070 C.3     0  <0>0        0.3466
     11  C17       13.9660   33.0870   63.1200 C.2     0  <0>0        0.3651
     12  O3        14.9940   33.5940   62.7390 O.2     0  <0>0       -0.2458
     13  O4        13.9200   31.7710   63.3780 O.3     0  <0>0       -0.4418
     14  C18       12.6160   31.1350   63.3240 C.3     0  <0>0        0.2557
     15  C2         7.9320   36.6450   56.9880 C.3     0  <0>0        0.0218
     16  C1         8.3540   36.1290   55.6100 C.3     0  <0>0        0.0045
     17  C3         6.4130   36.8250   57.0230 C.3     0  <0>0        0.0045
     18  C4         8.6110   37.9880   57.2590 C.3     0  <0>0        0.0045
     19  C11        7.4520   32.1300   59.1200 C.3     0  <0>0        0.0218
     20  C12        7.8630   31.3150   57.8930 C.3     0  <0>0        0.0045
     21  C13        7.8900   31.3980   60.3900 C.3     0  <0>0        0.0045
     22  C14        5.9320   32.3060   59.1320 C.3     0  <0>0        0.0045
     23  O1         6.7720   34.0810   57.1970 O.3     0  <0>0       -0.5061
     24  H12        7.0520   33.4340   56.5350 H       0  <0>0        0.2922
@<TRIPOS>BOND
     1    16    15    1
     2    24    23    1
     3    15    17    1
     4    15    18    1
     5    15     1    1
     6    23     6    1
     7    20    19    1
     8     1     6   ar
     9     1     2   ar
    10     6     5   ar
    11     2     3   ar
    12     5    19    1
    13     5     4   ar
    14    19    22    1
    15    19    21    1
    16     3     4   ar
    17     3     7    1
    18     7     8    2
    19     8     9    1
    20     9    10    1
    21    12    11    2
    22    11    10    1
    23    11    13    1
    24    14    13    1
