@<TRIPOS>MOLECULE
ZINC33749886_replica-1.pdb
 27 29 0 0 0
SMALL
GASTEIGER

@<TRIPOS>ATOM
      1  C7        -0.9170   29.9850   55.0450 C.3     0  <0>0        0.0373
      2  C6        -0.3870   31.3680   54.6650 C.3     0  <0>0        0.0898
      3  C5         0.4150   31.9300   55.8100 C.2     0  <0>0        0.2228
      4  N1         0.2560   33.2170   56.1780 N.am    0  <0>0       -0.3060
      5  H12       -0.4600   33.8570   55.6410 H       0  <0>0        0.1494
      6  O1         1.2050   31.2240   56.4010 O.2     0  <0>0       -0.2751
      7  C3         1.0370   33.7630   57.2910 C.3     0  <0>0        0.0716
      8  C4         1.4800   35.1870   56.9520 C.3     0  <0>0        0.0213
      9  C2         0.1750   33.7850   58.5540 C.3     0  <0>0        0.0196
     10  C1         0.7630   32.8240   59.5910 C.3     0  <0>0        0.0017
     11  C8        -2.1940   30.1370   55.8730 C.3     0  <0>0        0.0312
     12  C9        -2.1650   29.1670   57.0270 C.ar    0  <0>0       -0.0218
     13  C14       -3.0190   28.0800   57.0370 C.ar    0  <0>0       -0.0043
     14  C13       -2.9920   27.1890   58.0930 C.ar    0  <0>0       -0.0003
     15  C12       -2.1080   27.3840   59.1380 C.ar    0  <0>0       -0.0000
     16  C11       -1.2580   28.4740   59.1310 C.ar    0  <0>0       -0.0003
     17  C10       -1.2850   29.3640   58.0740 C.ar    0  <0>0       -0.0043
     18  C15       -1.2220   29.2020   53.7930 C.ar    0  <0>0       -0.0033
     19  C18       -0.7770   27.8410   53.4870 C.ar    0  <0>0        0.0131
     20  C17       -1.3030   27.5360   52.2180 C.ar    0  <0>0        0.0563
     21  C19       -0.0040   26.8970   54.1660 C.ar    0  <0>0        0.0012
     22  N2        -2.0110   28.6380   51.7970 N.ar    0  <0>0       -0.3523
     23  C22       -1.0450   26.2910   51.6550 C.ar    0  <0>0        0.0170
     24  C16       -1.9580   29.6180   52.7510 C.ar    0  <0>0        0.0681
     25  H3        -2.5690   28.8090   50.8640 H       0  <0>0        0.1660
     26  C21       -0.2790   25.3740   52.3410 C.ar    0  <0>0        0.0015
     27  C20        0.2380   25.6790   53.5930 C.ar    0  <0>0        0.0001
@<TRIPOS>BOND
     1    25    22    1
     2    23    20   ar
     3    23    26   ar
     4    22    20   ar
     5    22    24   ar
     6    20    19   ar
     7    26    27   ar
     8    24    18   ar
     9    19    18   ar
    10    19    21   ar
    11    27    21   ar
    12    18     1    1
    13     2     1    1
    14     2     3    1
    15     1    11    1
    16     5     4    1
    17     3     4   am
    18     3     6    2
    19    11    12    1
    20     4     7    1
    21     8     7    1
    22    12    13   ar
    23    12    17   ar
    24    13    14   ar
    25     7     9    1
    26    17    16   ar
    27    14    15   ar
    28     9    10    1
    29    16    15   ar
