@<TRIPOS>MOLECULE
ZINC37197700_replica-1.pdb
 22 24 0 0 0
SMALL
GASTEIGER

@<TRIPOS>ATOM
      1  C3        10.8380   35.1200   61.0160 C.3     0  <0>0        0.0918
      2  C2        10.7450   36.4480   61.7700 C.3     0  <0>0        0.0241
      3  C1         9.2820   36.8860   61.8570 C.3     0  <0>0        0.0021
      4  C4        11.7050   34.1620   61.7900 C.ar    0  <0>0       -0.0047
      5  C9        11.1630   33.0010   62.3120 C.ar    0  <0>0       -0.0038
      6  C8        11.9590   32.1250   63.0160 C.ar    0  <0>0        0.0153
      7  C7        13.3050   32.3990   63.2260 C.ar    0  <0>0        0.1346
      8  C10       11.6700   30.7910   63.6760 C.3     0  <0>0        0.0767
      9  C6        13.8430   33.5710   62.6980 C.ar    0  <0>0        0.0363
     10  O1        13.9000   31.4190   63.9600 O.3     0  <0>0       -0.4754
     11  C5        13.0450   34.4420   61.9860 C.ar    0  <0>0        0.0004
     12  C11       13.0940   30.2290   63.9010 C.3     0  <0>0        0.2102
     13  N1         9.4960   34.5500   60.8650 N.pl3   0  <0>0       -0.3306
     14  H14        9.0690   34.1070   61.6150 H       0  <0>0        0.1471
     15  C12        8.8300   34.6450   59.6380 C.ar    0  <0>0        0.0449
     16  C17        7.5310   34.1710   59.5140 C.ar    0  <0>0        0.0148
     17  C16        6.8700   34.2690   58.3050 C.ar    0  <0>0        0.0074
     18  C15        7.5110   34.8320   57.2090 C.ar    0  <0>0        0.0253
     19  C14        8.8130   35.3020   57.3310 C.ar    0  <0>0        0.0074
     20  C13        9.4700   35.2100   58.5410 C.ar    0  <0>0        0.0148
     21  S1         6.6710   34.9530   55.6640 S.3     0  <0>0       -0.1127
     22  C18        7.4160   36.4030   54.8710 C.3     0  <0>0        0.0742
@<TRIPOS>BOND
     1    22    21    1
     2    21    18    1
     3    18    19   ar
     4    18    17   ar
     5    19    20   ar
     6    17    16   ar
     7    20    15   ar
     8    16    15   ar
     9    15    13    1
    10    13     1    1
    11    13    14    1
    12     1     2    1
    13     1     4    1
    14     2     3    1
    15     4    11   ar
    16     4     5   ar
    17    11     9   ar
    18     5     6   ar
    19     9     7   ar
    20     6     7   ar
    21     6     8    1
    22     7    10    1
    23     8    12    1
    24    12    10    1
