@<TRIPOS>MOLECULE
ZINC04030546_replica-1.pdb
 20 22 0 0 0
SMALL
GASTEIGER

@<TRIPOS>ATOM
      1  C7        -0.4650   29.4530   54.8330 C.ar    0  <0>0        0.1656
      2  N1        -0.0990   30.6620   54.4580 N.ar    0  <0>0       -0.2034
      3  C8        -0.2130   31.5050   55.4810 C.ar    0  <0>0        0.2213
      4  N2        -0.6530   30.8580   56.5290 N.ar    0  <0>0       -0.1409
      5  N3        -0.8280   29.5200   56.1430 N.ar    0  <0>0       -0.2085
      6  C9        -1.2850   28.4650   56.9460 C.ar    0  <0>0        0.1119
      7  C14       -0.3760   27.6640   57.6280 C.ar    0  <0>0        0.1582
      8  C13       -0.8320   26.6250   58.4200 C.ar    0  <0>0        0.0379
      9  F1         0.9500   27.9000   57.5190 F       0  <0>0       -0.2026
     10  C12       -2.1890   26.3840   58.5320 C.ar    0  <0>0        0.0369
     11  C11       -3.0940   27.1800   57.8540 C.ar    0  <0>0        0.0084
     12 Br         -2.8080   24.9630   59.6160 Br      0  <0>0       -0.0489
     13  C10       -2.6480   28.2220   57.0650 C.ar    0  <0>0        0.0220
     14  C6        -0.4790   28.2420   53.9840 C.ar    0  <0>0        0.0360
     15  C1        -1.2330   28.2190   52.8100 C.ar    0  <0>0        0.0054
     16  C2        -1.2380   27.0880   52.0200 C.ar    0  <0>0        0.0297
     17  C3        -0.5030   25.9750   52.3940 C.ar    0  <0>0        0.1401
     18  C4         0.2440   25.9920   53.5600 C.ar    0  <0>0        0.0297
     19  F2        -0.5160   24.8680   51.6170 F       0  <0>0       -0.2042
     20  C5         0.2600   27.1180   54.3560 C.ar    0  <0>0        0.0054
@<TRIPOS>BOND
     1    19    17    1
     2    16    17   ar
     3    16    15   ar
     4    17    18   ar
     5    15    14   ar
     6    18    20   ar
     7    14    20   ar
     8    14     1    1
     9     2     1   ar
    10     2     3   ar
    11     1     5   ar
    12     3     4   ar
    13     5     4   ar
    14     5     6    1
    15     6    13   ar
    16     6     7   ar
    17    13    11   ar
    18     9     7    1
    19     7     8   ar
    20    11    10   ar
    21     8    10   ar
    22    10    12    1
