@<TRIPOS>MOLECULE
ZINC41839046_replica-1.pdb
 21 22 0 0 0
SMALL
GASTEIGER

@<TRIPOS>ATOM
      1  C9         8.0200   36.6270   57.7050 C.3     0  <0>0        0.0736
      2  C6         8.9330   36.3400   58.8680 C.ar    0  <0>0       -0.0299
      3  C5         9.5780   35.1210   58.9580 C.ar    0  <0>0       -0.0060
      4  C4        10.4170   34.8600   60.0250 C.ar    0  <0>0       -0.0046
      5  C3        10.6110   35.8170   61.0030 C.ar    0  <0>0       -0.0222
      6  C8         9.9610   37.0350   60.9170 C.ar    0  <0>0       -0.0046
      7  C7         9.1260   37.2980   59.8470 C.ar    0  <0>0       -0.0060
      8  C2        11.5240   35.5320   62.1670 C.3     0  <0>0        0.0264
      9  C1        12.3390   34.2700   61.8780 C.3     0  <0>0        0.0050
     10  C10        8.4530   35.7930   56.4980 C.3     0  <0>0       -0.0043
     11  C11        7.8910   36.4170   55.2190 C.3     0  <0>0       -0.0012
     12  C12        8.0950   38.0920   57.3560 C.2     0  <0>0        0.3508
     13  O1         7.0830   38.7720   57.3620 O.co2   0  <0>0       -0.2475
     14  O2         9.1670   38.5950   57.0680 O.co2   0  <0>0       -0.2475
     15  N1         6.6390   36.2810   58.0680 N.4     0  <0>0        0.3999
     16  C16        6.5040   36.1950   59.5390 C.3     0  <0>0       -0.0568
     17  C15        5.5050   35.0610   59.8350 C.3     0  <0>0       -0.0229
     18  C17        5.9700   37.5170   60.0910 C.3     0  <0>0       -0.0229
     19  C14        5.1130   34.4960   58.4500 C.3     0  <0>0       -0.0249
     20  C13        6.2970   34.9310   57.5500 C.3     0  <0>0       -0.0759
     21  H25        5.9990   36.9680   57.7000 H       0  <0>0       -0.0782
@<TRIPOS>BOND
     1    11    10    1
     2    10     1    1
     3    14    12   ar
     4    12    13   ar
     5    12     1    1
     6    20    15    1
     7    20    19    1
     8    21    15    1
     9     1    15    1
    10     1     2    1
    11    15    16    1
    12    19    17    1
    13     2     3   ar
    14     2     7   ar
    15     3     4   ar
    16    16    17    1
    17    16    18    1
    18     7     6   ar
    19     4     5   ar
    20     6     5   ar
    21     5     8    1
    22     9     8    1
