@<TRIPOS>MOLECULE
ZINC43535233_replica-1.pdb
 21 22 0 0 0
SMALL
GASTEIGER

@<TRIPOS>ATOM
      1  C4         9.3530   34.3600   59.3770 C.3     0  <0>0        0.1623
      2  C5         8.8390   33.1890   60.1040 C.1     0  <0>0        0.0923
      3  N1         8.4420   32.2850   60.6660 N.1     0  <0>0       -0.1942
      4  C3        10.7280   34.7410   59.9290 C.3     0  <0>0        0.0396
      5  C2        10.6610   34.8180   61.4560 C.3     0  <0>0        0.0251
      6  C1        10.8490   36.2700   61.9010 C.3     0  <0>0        0.0048
      7  C12       11.7520   33.9660   62.0500 C.ar    0  <0>0       -0.0224
      8  C17       13.0610   34.4100   62.0380 C.ar    0  <0>0       -0.0043
      9  C16       14.0610   33.6300   62.5870 C.ar    0  <0>0       -0.0003
     10  C15       13.7550   32.4020   63.1420 C.ar    0  <0>0       -0.0000
     11  C14       12.4470   31.9550   63.1500 C.ar    0  <0>0       -0.0003
     12  C13       11.4460   32.7370   62.6040 C.ar    0  <0>0       -0.0043
     13  N2         8.4290   35.4850   59.5470 N.pl3   0  <0>0       -0.3224
     14  H8         7.8590   35.5290   60.3300 H       0  <0>0        0.1477
     15  C6         8.3700   36.4930   58.5830 C.ar    0  <0>0        0.0476
     16  C11        8.2100   36.1650   57.2430 C.ar    0  <0>0        0.0439
     17  C10        8.1460   37.1650   56.2900 C.ar    0  <0>0        0.1414
     18  C9         8.2540   38.4930   56.6720 C.ar    0  <0>0        0.0297
     19  F1         7.9850   36.8490   54.9870 F       0  <0>0       -0.2041
     20  C8         8.4190   38.8210   58.0050 C.ar    0  <0>0        0.0036
     21  C7         8.4760   37.8260   58.9610 C.ar    0  <0>0        0.0145
@<TRIPOS>BOND
     1    19    17    1
     2    17    18   ar
     3    17    16   ar
     4    18    20   ar
     5    16    15   ar
     6    20    21   ar
     7    15    21   ar
     8    15    13    1
     9     1    13    1
    10     1     4    1
    11     1     2    1
    12    13    14    1
    13     4     5    1
    14     2     3    3
    15     5     6    1
    16     5     7    1
    17     8     7   ar
    18     8     9   ar
    19     7    12   ar
    20     9    10   ar
    21    12    11   ar
    22    10    11   ar
