@<TRIPOS>MOLECULE
ZINC00139034_replica-1.pdb
 22 23 0 0 0
SMALL
GASTEIGER

@<TRIPOS>ATOM
      1  N1         0.4650   29.4210   54.4800 N.am    0  <0>0       -0.3121
      2  H6         0.9820   29.4820   53.6620 H       0  <0>0        0.1488
      3  C7        -0.2370   28.1780   54.8110 C.3     0  <0>0        0.1186
      4  C4        -0.5530   27.4270   53.5450 C.ar    0  <0>0        0.0355
      5  C3        -1.2540   28.0490   52.5250 C.ar    0  <0>0        0.1385
      6  C2        -1.5380   27.3590   51.3600 C.ar    0  <0>0        0.0294
      7  F1        -1.6570   29.3310   52.6680 F       0  <0>0       -0.2044
      8  C1        -1.1320   26.0460   51.2170 C.ar    0  <0>0        0.0032
      9  C6        -0.4380   25.4220   52.2360 C.ar    0  <0>0        0.0113
     10  C5        -0.1480   26.1120   53.4000 C.ar    0  <0>0        0.0575
     11 Cl          0.7250   25.3290   54.6800 Cl      0  <0>0       -0.0824
     12  C8         0.3920   30.4780   55.3130 C.2     0  <0>0        0.1354
     13  S1        -1.0760   31.3430   55.4720 S.2     0  <0>0       -0.0185
     14  N2         1.4770   30.8540   56.0210 N.am    0  <0>0       -0.2959
     15  H7         2.2890   30.3270   55.9780 H       0  <0>0        0.1539
     16  C9         1.4270   32.0030   56.8170 C.ar    0  <0>0        0.0496
     17  C14        1.9580   33.1970   56.3500 C.ar    0  <0>0        0.0155
     18  C13        1.9070   34.3300   57.1390 C.ar    0  <0>0        0.0127
     19  C12        1.3280   34.2750   58.3950 C.ar    0  <0>0        0.0578
     20  C11        0.7990   33.0860   58.8630 C.ar    0  <0>0        0.0127
     21 Cl          1.2670   35.7010   59.3840 Cl      0  <0>0       -0.0822
     22  C10        0.8400   31.9510   58.0760 C.ar    0  <0>0        0.0155
@<TRIPOS>BOND
     1     8     6   ar
     2     8     9   ar
     3     6     5   ar
     4     9    10   ar
     5     5     7    1
     6     5     4   ar
     7    10     4   ar
     8    10    11    1
     9     4     3    1
    10     2     1    1
    11     1     3    1
    12     1    12    1
    13    12    13    2
    14    12    14    1
    15    15    14    1
    16    14    16    1
    17    17    16   ar
    18    17    18   ar
    19    16    22   ar
    20    18    19   ar
    21    22    20   ar
    22    19    20   ar
    23    19    21    1
