@<TRIPOS>MOLECULE
ZINC67589672_replica-1.pdb
 21 21 0 0 0
SMALL
GASTEIGER

@<TRIPOS>ATOM
      1  C3         0.7470   34.0400   58.8170 C.3     0  <0>0        0.1351
      2  C4         1.8720   34.7660   58.0750 C.3     0  <0>0        0.0331
      3  C5         1.9120   34.2940   56.6190 C.3     0  <0>0        0.0241
      4  C6         2.2010   32.7910   56.5820 C.3     0  <0>0        0.0951
      5  N1         1.2070   32.0970   57.4140 N.am    0  <0>0       -0.2617
      6  C7         1.0210   32.5330   58.8040 C.3     0  <0>0        0.1243
      7  C8         0.4770   31.0820   56.9090 C.2     0  <0>0        0.3040
      8  O2        -0.2760   30.4570   57.6310 O.2     0  <0>0       -0.2526
      9  N2         0.5840   30.7590   55.6040 N.am    0  <0>0       -0.2904
     10  H16        1.2370   31.2080   55.0460 H       0  <0>0        0.1509
     11  C9        -0.2880   29.7310   55.0310 C.3     0  <0>0        0.0731
     12  C10       -1.1630   30.3530   53.9420 C.3     0  <0>0        0.0213
     13  C11        0.5670   28.6180   54.4240 C.3     0  <0>0        0.0196
     14  C12       -0.2360   27.3150   54.3960 C.3     0  <0>0        0.0017
     15  C13        0.2590   26.4360   53.2450 C.3     0  <0>0        0.0001
     16  C14       -0.9020   26.1400   52.2940 C.3     0  <0>0        0.0000
     17  C15       -1.1600   27.3590   51.4070 C.3     0  <0>0        0.0000
     18  C16       -0.5490   24.9370   51.4170 C.3     0  <0>0        0.0000
     19  O1         0.6910   34.5030   60.1680 O.3     0  <0>0       -0.3545
     20  C2         0.6370   33.4550   61.1380 C.3     0  <0>0        0.1422
     21  C1        -0.4280   33.7850   62.1860 C.3     0  <0>0        0.0346
@<TRIPOS>BOND
     1    17    16    1
     2    18    16    1
     3    16    15    1
     4    15    14    1
     5    12    11    1
     6    14    13    1
     7    13    11    1
     8    11     9    1
     9    10     9    1
    10     9     7   am
    11     4     3    1
    12     4     5    1
    13     3     2    1
    14     7     5   am
    15     7     8    2
    16     5     6    1
    17     2     1    1
    18     6     1    1
    19     1    19    1
    20    19    20    1
    21    20    21    1
