@<TRIPOS>MOLECULE
ZINC04926800_replica-1.pdb
 23 24 0 0 0
SMALL
GASTEIGER

@<TRIPOS>ATOM
      1  C8         8.4920   32.8740   59.4670 C.2     0  <0>0        0.3620
      2  O2         7.4630   32.5360   58.9310 O.2     0  <0>0       -0.2459
      3  O1         9.2310   33.8630   58.9400 O.3     0  <0>0       -0.4497
      4  C6         8.5310   35.0760   58.5570 C.3     0  <0>0        0.1688
      5  C5         9.2170   36.2840   59.1990 C.3     0  <0>0        0.0402
      6  C4         8.4790   37.5630   58.7960 C.3     0  <0>0        0.0036
      7  C3         8.5080   37.7090   57.2730 C.3     0  <0>0        0.0002
      8  C2         7.8240   36.5010   56.6310 C.3     0  <0>0        0.0036
      9  C1         7.8520   36.6480   55.1080 C.3     0  <0>0        0.0001
     10  C7         8.5600   35.2230   57.0340 C.3     0  <0>0        0.0436
     11  C17        9.1880   36.1370   60.7210 C.3     0  <0>0        0.0035
     12  C18       10.4420   36.7770   61.3200 C.3     0  <0>0        0.0001
     13  C19        7.9450   36.8350   61.2780 C.3     0  <0>0        0.0001
     14  C9         8.9460   32.1850   60.7290 C.3     0  <0>0        0.3167
     15  O3        10.1490   32.8290   61.2250 O.3     0  <0>0       -0.4361
     16  C10       10.6530   32.3690   62.3810 C.2     0  <0>0        0.3170
     17  O4        10.0680   31.5110   62.9970 O.2     0  <0>0       -0.2501
     18  C11       11.9490   32.9250   62.9110 C.3     0  <0>0        0.0991
     19  C16       12.9390   31.7810   63.1410 C.3     0  <0>0        0.0111
     20  C15       14.2550   32.3450   63.6800 C.3     0  <0>0        0.0006
     21  C14       14.8410   33.3300   62.6650 C.3     0  <0>0        0.0000
     22  C13       13.8510   34.4740   62.4360 C.3     0  <0>0        0.0006
     23  C12       12.5350   33.9100   61.8980 C.3     0  <0>0        0.0111
@<TRIPOS>BOND
     1     9     8    1
     2     8    10    1
     3     8     7    1
     4    10     4    1
     5     7     6    1
     6     4     3    1
     7     4     5    1
     8     6     5    1
     9     2     1    2
    10     3     1    1
    11     5    11    1
    12     1    14    1
    13    11    13    1
    14    11    12    1
    15    14    15    1
    16    15    16    1
    17    23    22    1
    18    23    18    1
    19    16    18    1
    20    16    17    2
    21    22    21    1
    22    21    20    1
    23    18    19    1
    24    19    20    1
