@<TRIPOS>MOLECULE
ZINC28797743_replica-1.pdb
 27 28 0 0 0
SMALL
GASTEIGER

@<TRIPOS>ATOM
      1  C1         0.8160   33.1110   57.4520 C.3     0  <0>0        0.0311
      2  C2         1.4320   31.8030   56.9500 C.3     0  <0>0        0.1467
      3  C3         0.4350   31.0780   56.0830 C.2     0  <0>0        0.2403
      4  O1        -0.6700   31.5470   55.9080 O.2     0  <0>0       -0.2733
      5  N1         0.7720   29.9100   55.5010 N.am    0  <0>0       -0.3027
      6  H5         1.7750   29.4860   55.6600 H       0  <0>0        0.1495
      7  C4        -0.1970   29.2060   54.6580 C.3     0  <0>0        0.0938
      8  C5         0.2300   27.7440   54.5020 C.3     0  <0>0        0.0429
      9  C6        -0.3590   27.1810   53.2350 C.2     0  <0>0       -0.0468
     10  C11       -1.2190   28.0820   52.3980 C.3     0  <0>0        0.0218
     11  C10       -1.3630   27.5060   50.9860 C.3     0  <0>0        0.0047
     12  C9        -1.7710   26.0320   51.1060 C.3     0  <0>0        0.0050
     13  C8        -0.5990   25.2530   51.7090 C.3     0  <0>0        0.0254
     14  C7        -0.0940   25.9500   52.9380 C.2     0  <0>0       -0.0346
     15  N2         2.6360   32.0990   56.1690 N.pl3   0  <0>0       -0.3246
     16  H19        2.6940   31.7960   55.1130 H       0  <0>0        0.1473
     17  C12        3.7130   32.7680   56.7670 C.ar    0  <0>0        0.0804
     18  C17        4.2610   33.8920   56.1540 C.ar    0  <0>0        0.1548
     19  C16        5.3240   34.5530   56.7480 C.ar    0  <0>0        0.0759
     20  C15        5.8420   34.0930   57.9490 C.ar    0  <0>0        0.1523
     21  C14        5.2990   32.9690   58.5550 C.ar    0  <0>0        0.0929
     22  C13        4.2330   32.3110   57.9680 C.ar    0  <0>0        0.0318
     23 Cl          5.9540   32.3910   60.0560 Cl      0  <0>0       -0.0790
     24  O2         3.7520   34.3430   54.9750 O.3     0  <0>0       -0.4701
     25  C18        4.6900   34.7700   53.9850 C.3     0  <0>0        0.2525
     26  O3         6.8860   34.7410   58.5310 O.3     0  <0>0       -0.4705
     27  C19        6.6920   36.1180   58.8620 C.3     0  <0>0        0.2525
@<TRIPOS>BOND
     1    11    12    1
     2    11    10    1
     3    12    13    1
     4    13    14    1
     5    10     9    1
     6    14     9    2
     7     9     8    1
     8    25    24    1
     9     8     7    1
    10     7     5    1
    11    24    18    1
    12    16    15    1
    13     5     6    1
    14     5     3   am
    15     4     3    2
    16     3     2    1
    17    18    19   ar
    18    18    17   ar
    19    15    17    1
    20    15     2    1
    21    19    20   ar
    22    17    22   ar
    23     2     1    1
    24    20    26    1
    25    20    21   ar
    26    22    21   ar
    27    26    27    1
    28    21    23    1
