@<TRIPOS>MOLECULE
ZINC04249089_replica-1.pdb
 28 32 0 0 0
SMALL
GASTEIGER

@<TRIPOS>ATOM
      1  C12        1.8600   28.2000   58.6280 C.ar    0  <0>0        0.0505
      2  C13        1.0390   28.3930   59.7330 C.ar    0  <0>0        0.0148
      3  C14        1.5340   28.2040   61.0040 C.ar    0  <0>0        0.0035
      4  C15        2.8650   27.8290   61.1840 C.ar    0  <0>0        0.0273
      5  C16        3.6890   27.6400   60.0750 C.ar    0  <0>0        0.0035
      6  C17        3.1870   27.8250   58.8050 C.ar    0  <0>0        0.0148
      7  N1         1.3540   28.3880   57.3390 N.am    0  <0>0       -0.2804
      8  C11        0.6760   27.3950   56.7290 C.2     0  <0>0        0.2495
      9  O1         0.5870   26.3040   57.2610 O.2     0  <0>0       -0.2698
     10  H8         1.4900   29.2330   56.8830 H       0  <0>0        0.1552
     11  C6         0.0410   27.6310   55.4170 C.ar    0  <0>0        0.0537
     12  C5         0.0290   26.6230   54.4670 C.ar    0  <0>0        0.0045
     13  C4        -0.5800   26.8520   53.2250 C.ar    0  <0>0        0.0001
     14  C3        -0.6130   25.8530   52.2350 C.ar    0  <0>0        0.0000
     15  C9        -1.1740   28.1130   52.9610 C.ar    0  <0>0        0.0000
     16  C2        -1.2130   26.1080   51.0410 C.ar    0  <0>0        0.0000
     17  C1        -1.7970   27.3470   50.7810 C.ar    0  <0>0        0.0000
     18  C10       -1.7840   28.3380   51.7150 C.ar    0  <0>0        0.0000
     19  C8        -1.1450   29.1170   53.9460 C.ar    0  <0>0        0.0001
     20  C7        -0.5520   28.8770   55.1420 C.ar    0  <0>0        0.0045
     21  C18        3.4020   27.6290   62.5520 C.2     0  <0>0        0.1315
     22  N3         2.6760   27.3570   63.6640 N.2     0  <0>0       -0.3829
     23  C20        3.4900   27.2450   64.6800 C.2     0  <0>0        0.2184
     24  N2         4.7740   27.4450   64.2820 N.pl3   0  <0>0       -0.2489
     25  S1         3.5360   26.9260   66.4290 S.3     0  <0>0       -0.0379
     26  C19        4.7030   27.6920   62.9110 C.3     0  <0>0        0.1573
     27  C22        5.8370   27.3660   65.2820 C.2     0  <0>0        0.0752
     28  C21        5.3430   27.0540   66.7040 C.2     0  <0>0        0.0553
@<TRIPOS>BOND
     1    17    16   ar
     2    17    18   ar
     3    16    14   ar
     4    18    15   ar
     5    14    13   ar
     6    15    13   ar
     7    15    19   ar
     8    13    12   ar
     9    19    20   ar
    10    12    11   ar
    11    20    11   ar
    12    11     8    1
    13     8     9    2
    14     8     7   am
    15    10     7    1
    16     7     1    1
    17     1     6   ar
    18     1     2   ar
    19     6     5   ar
    20     2     3   ar
    21     5     4   ar
    22     3     4   ar
    23     4    21    1
    24    21    26    1
    25    21    22    2
    26    26    24    1
    27    22    23    2
    28    24    23    1
    29    24    27    1
    30    23    25    1
    31    27    28    2
    32    25    28    1
