@<TRIPOS>MOLECULE
ZINC67633604_replica-1.pdb
 24 24 0 0 0
SMALL
GASTEIGER

@<TRIPOS>ATOM
      1  C6        -0.5510   31.0620   57.0130 C.3     0  <0>0        0.1748
      2  N1        -0.0770   32.3860   56.6020 N.am    0  <0>0       -0.2624
      3  C5         0.1530   33.3360   57.5300 C.2     0  <0>0        0.4018
      4  O2        -0.0340   33.0950   58.7070 O.2     0  <0>0       -0.2264
      5  H12        0.0730   32.5790   55.6630 H       0  <0>0        0.1532
      6  O1         0.5890   34.5530   57.1530 O.3     0  <0>0       -0.4419
      7  C2         1.9530   34.8700   57.4390 C.3     0  <0>0        0.1378
      8  C1         2.5780   35.5690   56.2300 C.3     0  <0>0        0.0437
      9  C3         2.7250   33.5830   57.7400 C.3     0  <0>0        0.0437
     10  C4         2.0170   35.7980   58.6540 C.3     0  <0>0        0.0437
     11  C7         0.6390   30.1070   57.1300 C.3     0  <0>0        0.0428
     12  C8         0.8430   29.7260   58.5980 C.3     0  <0>0        0.0599
     13  S1         1.3050   27.9760   58.7100 S.3     0  <0>0       -0.1393
     14  C9         0.2100   27.1550   57.5200 C.3     0  <0>0        0.0692
     15  C10       -1.5180   30.5340   55.9840 C.2     0  <0>0        0.3351
     16  O3        -2.5480   31.1270   55.7630 O.2     0  <0>0       -0.2483
     17  O4        -1.2360   29.4070   55.3130 O.3     0  <0>0       -0.4474
     18  C11       -1.1240   29.5080   53.8920 C.3     0  <0>0        0.2087
     19  C12       -1.3180   28.1240   53.2660 C.3     0  <0>0        0.0485
     20  C17       -0.1250   27.2310   53.6130 C.3     0  <0>0        0.0294
     21  C16       -0.1670   25.9740   52.7930 C.2     0  <0>0       -0.0306
     22  C15       -0.8810   25.8270   51.7240 C.2     0  <0>0       -0.0307
     23  C14       -1.7740   26.8920   51.1560 C.3     0  <0>0        0.0258
     24  C13       -1.4020   28.2560   51.7400 C.3     0  <0>0        0.0087
@<TRIPOS>BOND
     1    23    22    1
     2    23    24    1
     3    22    21    2
     4    24    19    1
     5    21    20    1
     6    19    20    1
     7    19    18    1
     8    18    17    1
     9    17    15    1
    10     5     2    1
    11    16    15    2
    12    15     1    1
    13     8     7    1
    14     2     1    1
    15     2     3   am
    16     1    11    1
    17    11    12    1
    18     6     7    1
    19     6     3    1
    20     7     9    1
    21     7    10    1
    22    14    13    1
    23     3     4    2
    24    12    13    1
