@<TRIPOS>MOLECULE
ZINC27748558_replica-1.pdb
 24 26 0 0 0
SMALL
GASTEIGER

@<TRIPOS>ATOM
      1  N2         0.9910   30.7490   55.9990 N.am    0  <0>0       -0.2505
      2  C5         0.1140   29.7400   56.1700 C.2     0  <0>0        0.2585
      3  O1        -0.4990   29.6360   57.2160 O.2     0  <0>0       -0.2692
      4  H4         1.5450   30.8430   55.0530 H       0  <0>0        0.1580
      5  C6        -0.1020   28.7650   55.0950 C.ar    0  <0>0        0.0937
      6  S2         0.5090   27.0930   54.9710 S.2     0  <0>0       -0.0815
      7  C13       -0.2110   26.6710   53.4050 C.ar    0  <0>0        0.0327
      8  C8        -0.9020   27.8470   53.0310 C.ar    0  <0>0        0.0174
      9  C12       -0.2010   25.5420   52.6140 C.ar    0  <0>0        0.0361
     10  C7        -0.8160   28.9140   53.9450 C.ar    0  <0>0        0.0685
     11  C9        -1.5910   27.8090   51.7910 C.ar    0  <0>0        0.0037
     12 Cl         -1.6180   30.4160   53.6080 Cl      0  <0>0       -0.0816
     13  C10       -1.5740   26.6910   51.0210 C.ar    0  <0>0        0.0297
     14  C11       -0.8850   25.5460   51.4120 C.ar    0  <0>0        0.1406
     15  F1        -0.8850   24.4490   50.6250 F       0  <0>0       -0.2042
     16  C4         1.1930   31.6660   57.0120 C.2     0  <0>0        0.2132
     17  S1         0.1710   32.9810   57.5040 S.3     0  <0>0       -0.0534
     18  C3         1.2000   33.5910   58.8330 C.3     0  <0>0        0.1604
     19  C2         2.2640   32.6930   58.7640 C.2     0  <0>0        0.1064
     20  C1         3.4300   32.7930   59.7130 C.3     0  <0>0        0.0629
     21  N1         2.2120   31.7600   57.8550 N.2     0  <0>0       -0.3881
     22  C14        0.9940   34.6760   59.7060 C.2     0  <0>0        0.1675
     23  O2         1.4170   35.7780   59.4180 O.2     0  <0>0       -0.2947
     24  C15        0.2470   34.4710   60.9990 C.3     0  <0>0        0.0736
@<TRIPOS>BOND
     1    15    14    1
     2    13    14   ar
     3    13    11   ar
     4    14     9   ar
     5    11     8   ar
     6     9     7   ar
     7     8     7   ar
     8     8    10   ar
     9     7     6   ar
    10    12    10    1
    11    10     5   ar
    12     6     5   ar
    13     4     1    1
    14     5     2    1
    15     1     2   am
    16     1    16    1
    17     2     3    2
    18    16    17    1
    19    16    21    2
    20    17    18    1
    21    21    19    2
    22    19    18    1
    23    19    20    1
    24    18    22    1
    25    23    22    2
    26    22    24    1
