@<TRIPOS>MOLECULE
ZINC35552869_replica-1.pdb
 29 33 0 0 0
SMALL
GASTEIGER

@<TRIPOS>ATOM
      1  C4         0.4640   33.8470   60.3410 C.1     0  <0>0        0.1146
      2  N1         0.3750   32.9560   59.3690 N.2     0  <0>0       -0.3324
      3  C5         1.1800   32.9750   58.3200 C.2     0  <0>0        0.1830
      4  C6         2.1760   33.9870   58.2290 C.3     0  <0>0        0.1457
      5  C7         3.1680   34.2050   57.1750 C.2     0  <0>0       -0.0274
      6  C8         4.0070   35.2500   57.3320 C.2     0  <0>0        0.0023
      7  S1         3.5350   35.9960   58.8700 S.3     0  <0>0       -0.0631
      8  C9         2.2080   34.9010   59.3020 C.2     0  <0>0        0.1616
      9  N2         1.3630   34.8110   60.3100 N.2     0  <0>0       -0.3407
     10  C10        5.1010   35.6820   56.4050 C.3     0  <0>0        0.0324
     11  C11        5.3800   34.5380   55.4180 C.3     0  <0>0        0.0055
     12  C12        4.0450   34.0390   54.8560 C.3     0  <0>0        0.0047
     13  C13        3.2660   33.3040   55.9470 C.3     0  <0>0        0.0231
     14  N3         1.0550   32.0250   57.3220 N.pl3   0  <0>0       -0.2822
     15  C17        0.3000   32.3220   56.0970 C.3     0  <0>0        0.1143
     16  C16       -0.7830   31.2580   55.9130 C.3     0  <0>0        0.1123
     17  N4        -0.1700   29.9310   56.0630 N.pl3   0  <0>0       -0.3041
     18  C15        0.5790   29.6320   57.2920 C.3     0  <0>0        0.1123
     19  C14        1.6670   30.6970   57.4730 C.3     0  <0>0        0.1143
     20  C18       -0.2970   28.9690   55.0560 C.ar    0  <0>0        0.0481
     21  C23        0.3520   27.7480   55.1740 C.ar    0  <0>0        0.0168
     22  C22        0.2220   26.7980   54.1790 C.ar    0  <0>0        0.0309
     23  C21       -0.5480   27.0670   53.0600 C.ar    0  <0>0        0.1402
     24  C20       -1.1920   28.2860   52.9380 C.ar    0  <0>0        0.0309
     25  F1        -0.6700   26.1380   52.0870 F       0  <0>0       -0.2042
     26  C19       -1.0680   29.2370   53.9320 C.ar    0  <0>0        0.0168
     27  C3        -0.4860   33.7630   61.5080 C.3     0  <0>0        0.1249
     28  C2         0.2080   33.0640   62.6800 C.3     0  <0>0        0.0181
     29  C1        -0.2660   31.6110   62.7580 C.3     0  <0>0        0.0012
@<TRIPOS>BOND
     1    25    23    1
     2    24    23   ar
     3    24    26   ar
     4    23    22   ar
     5    26    20   ar
     6    22    21   ar
     7    12    11    1
     8    12    13    1
     9    20    21   ar
    10    20    17    1
    11    11    10    1
    12    16    17    1
    13    16    15    1
    14    13     5    1
    15    17    18    1
    16    15    14    1
    17    10     6    1
    18     5     6    2
    19     5     4    1
    20    18    19    1
    21    14    19    1
    22    14     3    1
    23     6     7    1
    24     4     3    1
    25     4     8    1
    26     3     2    2
    27     7     8    1
    28     8     9    2
    29     2     1    2
    30     9     1    2
    31     1    27    1
    32    27    28    1
    33    28    29    1
