@<TRIPOS>MOLECULE
ZINC00097245_replica-1.pdb
 25 26 0 0 0
SMALL
GASTEIGER

@<TRIPOS>ATOM
      1  C4         7.4210   37.1300   58.4510 C.3     0  <0>0        0.1003
      2  C2         8.0140   37.3240   57.0540 C.3     0  <0>0        0.0128
      3  C1         6.8830   37.4100   56.0280 C.3     0  <0>0        0.0008
      4  C3         8.8320   38.6160   57.0210 C.3     0  <0>0        0.0008
      5  C5         8.5070   36.6920   59.4000 C.ar    0  <0>0       -0.0136
      6  C10        8.6310   37.3020   60.6350 C.ar    0  <0>0       -0.0007
      7  C9         9.6250   36.9010   61.5080 C.ar    0  <0>0        0.0368
      8  C8        10.4980   35.8860   61.1440 C.ar    0  <0>0        0.1443
      9  C7        10.3720   35.2770   59.9030 C.ar    0  <0>0        0.0368
     10  C6         9.3730   35.6770   59.0370 C.ar    0  <0>0       -0.0007
     11  O1        11.4760   35.4920   62.0000 O.3     0  <0>0       -0.4236
     12  C11       11.9310   34.1410   61.8860 C.3     0  <0>0        0.5087
     13  F1        13.2840   34.1320   61.5330 F       0  <0>0       -0.1550
     14  F2        11.7640   33.4890   63.1120 F       0  <0>0       -0.1550
     15  C12        6.3450   36.0770   58.3990 C.2     0  <0>0        0.2447
     16  O2         6.5550   35.0220   57.8380 O.2     0  <0>0       -0.2730
     17  N1         5.1480   36.3080   58.9750 N.am    0  <0>0       -0.2055
     18  H14        4.9970   37.1300   59.4680 H       0  <0>0        0.1773
     19  N2         4.1210   35.3610   58.8610 N.2     0  <0>0       -0.1744
     20  C13        2.8870   35.7520   58.7320 C.2     0  <0>0        0.1549
     21  C14        1.8140   34.7610   58.6140 C.ar    0  <0>0        0.1661
     22  O3         1.7320   33.5970   59.2900 O.2     0  <0>0       -0.4488
     23  C17        0.6140   32.9480   58.9260 C.ar    0  <0>0        0.1797
     24  C16       -0.0410   33.6920   58.0120 C.ar    0  <0>0        0.0438
     25  C15        0.7220   34.8540   57.8000 C.ar    0  <0>0        0.0424
@<TRIPOS>BOND
     1     3     2    1
     2     4     2    1
     3     2     1    1
     4    25    24   ar
     5    25    21   ar
     6    16    15    2
     7    24    23   ar
     8    15     1    1
     9    15    17   am
    10     1     5    1
    11    21    20    1
    12    21    22   ar
    13    20    19    2
    14    19    17    1
    15    23    22   ar
    16    17    18    1
    17    10     5   ar
    18    10     9   ar
    19     5     6   ar
    20     9     8   ar
    21     6     7   ar
    22     8     7   ar
    23     8    11    1
    24    13    12    1
    25    12    11    1
    26    12    14    1
