@<TRIPOS>MOLECULE
ZINC53580599_replica-1.pdb
 17 19 0 0 0
SMALL
GASTEIGER

@<TRIPOS>ATOM
      1  C1        -2.2950   28.6100   51.3530 C.2     0  <0>0       -0.0033
      2  C2        -1.8980   29.2390   52.4970 C.2     0  <0>0       -0.0140
      3  C3        -1.0630   28.5700   53.3980 C.3     0  <0>0        0.1083
      4  C4        -0.6380   27.2490   53.1110 C.2     0  <0>0        0.0719
      5  C5        -1.0640   26.6330   51.9270 C.2     0  <0>0        0.0484
      6  C6        -1.8790   27.3140   51.0690 C.2     0  <0>0        0.0076
      7 Br         -0.5120   24.8720   51.5180 Br      0  <0>0       -0.0478
      8  N1         0.1630   26.6250   53.9880 N.2     0  <0>0       -0.2474
      9  C7         0.5440   27.2300   55.0890 C.3     0  <0>0        0.2506
     10  N2         0.1730   28.4620   55.3990 N.2     0  <0>0       -0.2413
     11  C8        -0.6180   29.1690   54.6020 C.2     0  <0>0        0.0962
     12  S1        -1.1030   30.8090   55.0290 S.3     0  <0>0       -0.0464
     13  C9         0.1510   31.3460   56.1450 C.ar    0  <0>0        0.1416
     14  S2         0.1700   31.2400   57.8250 S.2     0  <0>0       -0.0594
     15  C11        1.7630   31.9980   58.1010 C.ar    0  <0>0        0.0580
     16  C10        2.1360   32.2750   56.8280 C.ar    0  <0>0        0.1071
     17  N3         1.2970   31.9310   55.8690 N.ar    0  <0>0       -0.2301
@<TRIPOS>BOND
     1     6     1    1
     2     6     5    2
     3     1     2    2
     4     7     5    1
     5     5     4    1
     6     2     3    1
     7     4     3    1
     8     4     8    2
     9     3    11    1
    10     8     9    1
    11    11    12    1
    12    11    10    2
    13    12    13    1
    14     9    10    1
    15    17    13   ar
    16    17    16   ar
    17    13    14   ar
    18    16    15   ar
    19    14    15   ar
