@<TRIPOS>MOLECULE
ZINC42585550_replica-1.pdb
 21 21 0 0 0
SMALL
GASTEIGER

@<TRIPOS>ATOM
      1  C9         8.1420   37.0490   56.4630 C.3     0  <0>0        0.1828
      2  C8         6.6610   36.9700   56.0810 C.3     0  <0>0       -0.0292
      3  N1         6.0400   35.8290   56.7660 N.4     0  <0>0        0.3893
      4  C7         5.9930   34.6780   55.8530 C.3     0  <0>0       -0.1004
      5  H25        6.5820   35.5890   57.5820 H       0  <0>0       -0.0796
      6  C2         4.6740   36.1870   57.1730 C.3     0  <0>0       -0.0581
      7  C1         3.6720   35.5430   56.2130 C.3     0  <0>0       -0.0229
      8  C3         4.4160   35.6820   58.5940 C.3     0  <0>0       -0.0208
      9  C4         5.6630   35.9100   59.4490 C.3     0  <0>0       -0.0020
     10  C5         5.5940   37.2970   60.0920 C.3     0  <0>0       -0.0001
     11  C6         5.7310   34.8440   60.5460 C.3     0  <0>0       -0.0001
     12  O1         8.2700   37.6420   57.7570 O.3     0  <0>0       -0.4777
     13  C10        8.9520   36.9360   58.6920 C.ar    0  <0>0        0.1384
     14  C15        9.3330   35.6250   58.4290 C.ar    0  <0>0        0.0371
     15  C14       10.0310   34.9060   59.3730 C.ar    0  <0>0        0.0097
     16  C13       10.3470   35.4920   60.6030 C.ar    0  <0>0        0.0800
     17  C12        9.9560   36.8100   60.8650 C.ar    0  <0>0        0.0097
     18  C11        9.2630   37.5230   59.9140 C.ar    0  <0>0        0.0371
     19  C16       11.0880   34.7260   61.6180 C.2     0  <0>0        0.3878
     20  O2        10.8390   33.5410   61.7940 O.co2   0  <0>0       -0.2406
     21  O3        11.9540   35.2740   62.2860 O.co2   0  <0>0       -0.2406
@<TRIPOS>BOND
     1     4     3    1
     2     2     1    1
     3     2     3    1
     4     7     6    1
     5     1    12    1
     6     3     6    1
     7     3     5    1
     8     6     8    1
     9    12    13    1
    10    14    13   ar
    11    14    15   ar
    12     8     9    1
    13    13    18   ar
    14    15    16   ar
    15     9    10    1
    16     9    11    1
    17    18    17   ar
    18    16    17   ar
    19    16    19    1
    20    19    20   ar
    21    19    21   ar
