@<TRIPOS>MOLECULE
ZINC01019513_replica-1.pdb
 26 29 0 0 0
SMALL
GASTEIGER

@<TRIPOS>ATOM
      1  C1         6.9550   36.3750   60.8370 C.3     0  <0>0        0.0537
      2  C2         6.0440   35.9820   59.7020 C.ar    0  <0>0        0.0792
      3  C3         6.3850   35.9990   58.3330 C.ar    0  <0>0        0.0386
      4  C4         5.3070   35.5810   57.6340 C.ar    0  <0>0        0.1338
      5  N1         4.3150   35.3070   58.5500 N.ar    0  <0>0       -0.2165
      6  N2         4.8160   35.5650   59.8250 N.ar    0  <0>0       -0.1686
      7  N3         5.0940   35.4170   56.2860 N.am    0  <0>0       -0.2688
      8  C11        5.8260   35.5440   55.2200 C.2     0  <0>0        0.2382
      9  O1         5.2880   35.2000   54.1890 O.2     0  <0>0       -0.2738
     10  C12        7.2090   36.0420   55.0630 C.3     0  <0>0        0.1433
     11  S1         8.2940   35.5310   56.4030 S.3     0  <0>0       -0.1223
     12  C13        7.7400   36.4240   57.8580 C.3     0  <0>0        0.0963
     13  H10        4.1860   35.1420   56.0840 H       0  <0>0        0.1563
     14  C14        8.7320   36.2040   58.9690 C.ar    0  <0>0       -0.0082
     15  C19        9.1440   37.2670   59.7500 C.ar    0  <0>0       -0.0023
     16  C18       10.0510   37.0650   60.7720 C.ar    0  <0>0        0.0111
     17  C17       10.5560   35.7990   61.0080 C.ar    0  <0>0        0.0577
     18  C16       10.1480   34.7350   60.2240 C.ar    0  <0>0        0.0111
     19 Cl         11.7000   35.5450   62.2890 Cl      0  <0>0       -0.0822
     20  C15        9.2370   34.9370   59.2040 C.ar    0  <0>0       -0.0023
     21  C5         3.0260   34.8430   58.2510 C.ar    0  <0>0        0.0842
     22  C10        2.0010   35.7460   58.0070 C.ar    0  <0>0        0.0192
     23  C9         0.7340   35.2850   57.7080 C.ar    0  <0>0        0.0015
     24  C8         0.4830   33.9260   57.6640 C.ar    0  <0>0        0.0001
     25  C7         1.5010   33.0240   57.9120 C.ar    0  <0>0        0.0015
     26  C6         2.7710   33.4790   58.2050 C.ar    0  <0>0        0.0192
@<TRIPOS>BOND
     1     9     8    2
     2    10     8    1
     3    10    11    1
     4     8     7   am
     5    13     7    1
     6     7     4    1
     7    11    12    1
     8     4     3   ar
     9     4     5   ar
    10    24    23   ar
    11    24    25   ar
    12    23    22   ar
    13    12     3    1
    14    12    14    1
    15    25    26   ar
    16    22    21   ar
    17    26    21   ar
    18    21     5    1
    19     3     2   ar
    20     5     6   ar
    21    14    20   ar
    22    14    15   ar
    23    20    18   ar
    24     2     6   ar
    25     2     1    1
    26    15    16   ar
    27    18    17   ar
    28    16    17   ar
    29    17    19    1
