@<TRIPOS>MOLECULE
ZINC12651926_replica-1.pdb
 27 29 0 0 0
SMALL
GASTEIGER

@<TRIPOS>ATOM
      1  C1         1.1570   31.0990   59.7140 C.3     0  <0>0        0.0630
      2  C2         1.3990   31.5490   58.2960 C.2     0  <0>0        0.1075
      3  C3         0.4950   31.2320   57.2990 C.3     0  <0>0        0.1224
      4  C4         0.7580   31.6690   55.9980 C.2     0  <0>0        0.1943
      5  N1         1.8620   32.3720   55.7640 N.2     0  <0>0       -0.3274
      6  C5         2.7030   32.6550   56.7490 C.1     0  <0>0        0.1382
      7  N2         2.4760   32.2570   57.9930 N.2     0  <0>0       -0.3482
      8  N3        -0.1190   31.3740   54.9660 N.pl3   0  <0>0       -0.2127
      9  H9        -0.7940   32.0190   54.7050 H       0  <0>0        0.1767
     10  N4        -0.0310   30.1440   54.3020 N.2     0  <0>0       -0.1840
     11  C12       -1.0930   29.6100   53.7830 C.2     0  <0>0        0.0766
     12  C13       -2.4210   30.3120   53.8930 C.3     0  <0>0        0.0537
     13  C14       -1.0000   28.3140   53.0830 C.ar    0  <0>0        0.0151
     14  C19       -0.3170   27.2470   53.6710 C.ar    0  <0>0        0.0012
     15  C18       -0.2390   26.0370   53.0130 C.ar    0  <0>0        0.0000
     16  C17       -0.8250   25.8830   51.7700 C.ar    0  <0>0        0.0000
     17  C16       -1.4990   26.9370   51.1790 C.ar    0  <0>0        0.0000
     18  C15       -1.5900   28.1510   51.8280 C.ar    0  <0>0        0.0012
     19  C20       -0.7440   30.4320   57.6070 C.3     0  <0>0        0.0413
     20  C21       -0.4260   28.9620   57.5230 C.2     0  <0>0       -0.0252
     21  C22       -1.3730   28.1020   57.2370 C.2     0  <0>0       -0.0049
     22  C6         3.9260   33.4400   56.4520 C.ar    0  <0>0        0.0856
     23  C11        4.0990   34.0160   55.1950 C.ar    0  <0>0        0.0120
     24  C10        5.2350   34.7520   54.9270 C.ar    0  <0>0        0.0007
     25  C9         6.2070   34.9070   55.8990 C.ar    0  <0>0        0.0000
     26  C8         6.0430   34.3330   57.1470 C.ar    0  <0>0        0.0007
     27  C7         4.9070   33.6000   57.4270 C.ar    0  <0>0        0.0120
@<TRIPOS>BOND
     1    17    16   ar
     2    17    18   ar
     3    16    15   ar
     4    18    13   ar
     5    15    14   ar
     6    13    14   ar
     7    13    11    1
     8    11    12    1
     9    11    10    2
    10    10     8    1
    11     9     8    1
    12    24    23   ar
    13    24    25   ar
    14     8     4    1
    15    23    22   ar
    16     5     4    2
    17     5     6    2
    18    25    26   ar
    19     4     3    1
    20    22     6    1
    21    22    27   ar
    22     6     7    2
    23    26    27   ar
    24    21    20    2
    25     3    19    1
    26     3     2    1
    27    20    19    1
    28     7     2    2
    29     2     1    1
