@<TRIPOS>MOLECULE
ZINC19642013_replica-1.pdb
 34 38 0 0 0
SMALL
GASTEIGER

@<TRIPOS>ATOM
      1  C10       -0.8590   28.7020   57.4130 C.3     0  <0>0        0.2297
      2  C11       -0.8330   27.4210   58.2070 C.2     0  <0>0        0.0803
      3  C12        0.3050   27.0150   58.8090 C.2     0  <0>0        0.0880
      4  C13        0.3550   25.7380   59.6080 C.3     0  <0>0        0.0584
      5  C14       -0.6510   24.7350   59.0370 C.3     0  <0>0        0.0140
      6  C15       -2.0460   25.3700   59.0700 C.3     0  <0>0        0.0694
      7  C16       -2.0140   26.6650   58.3040 C.2     0  <0>0        0.1749
      8  O1        -3.0240   27.0630   57.7600 O.2     0  <0>0       -0.2915
      9  C17       -0.2750   24.3980   57.5930 C.3     0  <0>0        0.0009
     10  C18       -0.6420   23.4600   59.8820 C.3     0  <0>0        0.0009
     11  N1         1.4390   27.7760   58.6990 N.pl3   0  <0>0       -0.2086
     12  C19        1.3420   29.0980   58.3250 C.cat   0  <0>0        0.3774
     13  N2         0.2840   29.5470   57.7300 N.2     0  <0>0       -0.0951
     14  N3         2.3880   29.9550   58.5870 N.pl3   0  <0>0       -0.1741
     15  H23        2.4230   27.3320   58.9100 H       0  <0>0        0.2509
     16  H24        3.2910   29.5830   59.0910 H       0  <0>0        0.2543
     17  C20        2.3020   31.2860   58.2150 C.2     0  <0>0        0.2767
     18  S1         1.3640   32.6040   58.9740 S.3     0  <0>0       -0.0206
     19  C26        1.8510   33.8970   57.8570 C.2     0  <0>0        0.0601
     20  C21        2.7110   33.2170   56.9660 C.2     0  <0>0        0.1405
     21  C25        1.5710   35.2350   57.7390 C.2     0  <0>0       -0.0122
     22  N4         2.8930   31.9010   57.2170 N.2     0  <0>0       -0.3665
     23  C22        3.2800   33.9940   55.9310 C.2     0  <0>0        0.0284
     24  C23        2.9940   35.3290   55.8200 C.2     0  <0>0       -0.0188
     25  C24        2.1440   35.9650   56.7130 C.3     0  <0>0        0.0527
     26  C7        -0.8330   28.3710   55.9420 C.ar    0  <0>0        0.0214
     27  C6        -1.6130   29.0920   55.0580 C.ar    0  <0>0       -0.0009
     28  C5        -1.5890   28.7870   53.7090 C.ar    0  <0>0       -0.0045
     29  C4        -0.7910   27.7580   53.2470 C.ar    0  <0>0       -0.0225
     30  C9        -0.0080   27.0400   54.1310 C.ar    0  <0>0       -0.0045
     31  C8        -0.0320   27.3440   55.4790 C.ar    0  <0>0       -0.0009
     32  C2        -0.7710   27.4210   51.7780 C.3     0  <0>0        0.0224
     33  C1        -0.8450   25.9040   51.6010 C.3     0  <0>0        0.0047
     34  C3        -1.9700   28.0750   51.0880 C.3     0  <0>0        0.0047
@<TRIPOS>BOND
     1    34    32    1
     2    33    32    1
     3    32    29    1
     4    29    28   ar
     5    29    30   ar
     6    28    27   ar
     7    30    31   ar
     8    27    26   ar
     9    31    26   ar
    10    24    23    2
    11    24    25    1
    12    23    20    1
    13    26     1    1
    14    25    21    1
    15    20    22    2
    16    20    19    1
    17    22    17    2
    18     1    13    1
    19     1     2    1
    20     9     5    1
    21    13    12    2
    22    21    19    2
    23     8     7    2
    24    19    18    1
    25     2     7    1
    26     2     3    2
    27    17    14    1
    28    17    18    1
    29     7     6    1
    30    12    14    1
    31    12    11    1
    32    14    16    1
    33    11     3    1
    34    11    15    1
    35     3     4    1
    36     5     6    1
    37     5     4    1
    38     5    10    1
