@<TRIPOS>MOLECULE
ZINC50407758_replica-1.pdb
 21 22 0 0 0
SMALL
GASTEIGER

@<TRIPOS>ATOM
      1  N1         8.9980   35.1850   60.1800 N.am    0  <0>0       -0.2346
      2  C7        10.0120   35.7650   60.8620 C.2     0  <0>0        0.2564
      3  O1        10.1820   36.9700   60.8400 O.2     0  <0>0       -0.2694
      4  C8        10.9010   34.8830   61.6330 C.2     0  <0>0        0.0796
      5  C9        11.9750   35.3790   62.3690 C.2     0  <0>0        0.0065
      6  C10       12.7770   34.5070   63.0740 C.2     0  <0>0       -0.0039
      7  C11       12.5230   33.1430   63.0530 C.2     0  <0>0       -0.0187
      8  C12       11.4670   32.6310   62.3310 C.3     0  <0>0        0.0851
      9  C13       10.6410   33.4950   61.6110 C.2     0  <0>0        0.1189
     10  N2         9.5890   33.0350   60.8860 N.2     0  <0>0       -0.3937
     11  C14        8.8170   33.8390   60.2200 C.2     0  <0>0        0.1803
     12  C4         8.0810   36.0160   59.3960 C.3     0  <0>0        0.0821
     13  C3         8.8560   36.7070   58.2710 C.3     0  <0>0        0.0203
     14  C2         8.4090   38.1670   58.1670 C.3     0  <0>0        0.0017
     15  C1         8.0900   38.4990   56.7080 C.3     0  <0>0        0.0001
     16  C5         7.4490   37.0740   60.3030 C.3     0  <0>0        0.0203
     17  C6         5.9790   36.7240   60.5480 C.3     0  <0>0        0.0018
     18  C15        7.6670   33.2480   59.4470 C.3     0  <0>0        0.1465
     19 Cl          6.4590   32.5620   60.5950 Cl      0  <0>0       -0.1059
     20  C16        8.1860   32.1400   58.5280 C.3     0  <0>0        0.0249
     21  C17        8.1610   32.6270   57.0780 C.3     0  <0>0        0.0018
@<TRIPOS>BOND
     1    15    14    1
     2    21    20    1
     3    14    13    1
     4    13    12    1
     5    20    18    1
     6    12     1    1
     7    12    16    1
     8    18    11    1
     9    18    19    1
    10     1    11    1
    11     1     2   am
    12    11    10    2
    13    16    17    1
    14     3     2    2
    15     2     4    1
    16    10     9    2
    17     9     4    1
    18     9     8    1
    19     4     5    2
    20     8     7    1
    21     5     6    1
    22     7     6    2
