@<TRIPOS>MOLECULE
ZINC14986657_replica-1.pdb
 30 33 0 0 0
SMALL
GASTEIGER

@<TRIPOS>ATOM
      1  C2        -1.1270   28.5270   59.7730 C.ar    0  <0>0        0.1393
      2  C3        -0.3220   29.6240   60.0430 C.ar    0  <0>0        0.0382
      3  C4        -0.0360   30.5500   59.0570 C.ar    0  <0>0        0.0181
      4  C5        -0.5610   30.3800   57.7800 C.ar    0  <0>0        0.0541
      5  C6        -1.3680   29.2890   57.5200 C.ar    0  <0>0        0.0418
      6  C7        -1.6560   28.3560   58.4990 C.ar    0  <0>0        0.0443
      7  S1        -2.0470   29.1140   55.8880 S.3     0  <0>0       -0.1087
      8  C8        -0.5470   28.8330   54.8890 C.3     0  <0>0        0.0757
      9  C9         0.1560   30.1570   54.6510 C.3     0  <0>0        0.0370
     10  C10        0.7730   30.8040   55.8720 C.3     0  <0>0        0.0924
     11  N1        -0.2500   31.3310   56.7860 N.pl3   0  <0>0       -0.3007
     12  C15       -0.9320   28.2260   53.5650 C.ar    0  <0>0       -0.0082
     13  C20       -0.5070   26.9520   53.2380 C.ar    0  <0>0        0.0683
     14  C19       -0.8600   26.3960   52.0220 C.ar    0  <0>0        0.0036
     15  C18       -1.6380   27.1140   51.1340 C.ar    0  <0>0       -0.0001
     16  C17       -2.0590   28.3890   51.4580 C.ar    0  <0>0       -0.0003
     17  C16       -1.7100   28.9440   52.6760 C.ar    0  <0>0       -0.0035
     18  C21        0.3420   26.1700   54.2070 C.3     0  <0>0        0.4183
     19  F1         1.6450   26.6790   54.2010 F       0  <0>0       -0.1659
     20  F2        -0.1960   26.2790   55.4930 F       0  <0>0       -0.1659
     21  F3         0.3670   24.8250   53.8240 F       0  <0>0       -0.1659
     22  C11        0.1840   32.5980   57.3870 C.3     0  <0>0        0.1554
     23  C12        1.5830   32.9200   56.9280 C.ar    0  <0>0        0.1374
     24  N3         2.6840   32.5160   57.5010 N.ar    0  <0>0       -0.2278
     25  C14        3.7370   32.9900   56.8200 C.ar    0  <0>0        0.1187
     26  C13        3.2720   33.7230   55.7900 C.ar    0  <0>0        0.0943
     27  N2         1.9050   33.6790   55.8580 N.ar    0  <0>0       -0.3382
     28  H2         1.2650   34.1260   55.2340 H       0  <0>0        0.1672
     29  O1        -1.3980   27.6230   60.7510 O.3     0  <0>0       -0.4714
     30  C1        -1.4410   26.2460   60.3680 C.3     0  <0>0        0.2525
@<TRIPOS>BOND
     1    15    16   ar
     2    15    14   ar
     3    16    17   ar
     4    14    13   ar
     5    17    12   ar
     6    13    12   ar
     7    13    18    1
     8    12     8    1
     9    21    18    1
    10    19    18    1
    11    18    20    1
    12     9     8    1
    13     9    10    1
    14     8     7    1
    15    28    27    1
    16    26    27   ar
    17    26    25   ar
    18    27    23   ar
    19    10    11    1
    20     7     5    1
    21    11    22    1
    22    11     4    1
    23    25    24   ar
    24    23    22    1
    25    23    24   ar
    26     5     4   ar
    27     5     6   ar
    28     4     3   ar
    29     6     1   ar
    30     3     2   ar
    31     1     2   ar
    32     1    29    1
    33    30    29    1
