@<TRIPOS>MOLECULE
ZINC27642559_replica-1.pdb
 25 26 0 0 0
SMALL
GASTEIGER

@<TRIPOS>ATOM
      1  C9         8.9080   37.2030   58.7890 C.3     0  <0>0        0.0526
      2  C10        8.3450   38.1550   59.8550 C.3     0  <0>0        0.1182
      3  C11        7.7070   37.2720   60.9440 C.3     0  <0>0        0.0730
      4  C12        8.4070   35.9030   60.8080 C.3     0  <0>0        0.1685
      5  C13        8.6350   35.7670   59.2690 C.3     0  <0>0        0.0540
      6  C14        9.9660   34.9770   59.2360 C.3     0  <0>0        0.0675
      7  C15       10.5480   35.1580   60.6240 C.2     0  <0>0        0.1117
      8  C16       11.6500   34.5950   61.0730 C.2     0  <0>0        0.0062
      9  O1         9.7440   36.0000   61.3300 O.2     0  <0>0       -0.4836
     10  C8         8.2170   37.4420   57.4700 C.2     0  <0>0       -0.0261
     11  C7         8.2610   36.5280   56.5330 C.2     0  <0>0       -0.0020
     12  C6         7.5700   36.7680   55.2150 C.3     0  <0>0        0.1322
     13  C5         6.1520   36.1930   55.2710 C.3     0  <0>0        0.0338
     14  C4         6.1850   34.8220   55.9490 C.3     0  <0>0        0.0028
     15  C3         4.9560   34.6680   56.8480 C.3     0  <0>0        0.0001
     16  C2         5.3800   34.7760   58.3140 C.3     0  <0>0        0.0000
     17  C1         4.8490   36.0830   58.9040 C.3     0  <0>0        0.0000
     18  O3         7.5040   38.1720   54.9590 O.3     0  <0>0       -0.3801
     19  H34        7.5260   38.5440   53.9240 H       0  <0>0        0.2108
     20  O2         7.3560   39.0080   59.2750 O.3     0  <0>0       -0.3840
     21  H33        7.6610   39.8490   58.6360 H       0  <0>0        0.2104
     22  C17       12.1140   34.8640   62.4810 C.3     0  <0>0        0.0289
     23  C18       12.4300   33.5390   63.1770 C.3     0  <0>0        0.0048
     24  C19       13.9200   33.2240   63.0220 C.3     0  <0>0        0.0003
     25  C20       14.2660   31.9820   63.8440 C.3     0  <0>0        0.0000
@<TRIPOS>BOND
     1    19    18    1
     2    18    12    1
     3    12    13    1
     4    12    11    1
     5    13    14    1
     6    14    15    1
     7    11    10    2
     8    15    16    1
     9    10     1    1
    10    16    17    1
    11    21    20    1
    12     1     5    1
    13     1     2    1
    14     6     5    1
    15     6     7    1
    16     5     4    1
    17    20     2    1
    18     2     3    1
    19     7     8    2
    20     7     9    1
    21     4     3    1
    22     4     9    1
    23     8    22    1
    24    22    23    1
    25    24    23    1
    26    24    25    1
