@<TRIPOS>MOLECULE
ZINC13468916_replica-1.pdb
 26 27 0 0 0
SMALL
GASTEIGER

@<TRIPOS>ATOM
      1  N1         6.9040   35.4880   58.5780 N.am    0  <0>0       -0.3022
      2  C11        7.5840   34.3980   58.9840 C.2     0  <0>0        0.2235
      3  O1         7.7090   33.4490   58.2380 O.2     0  <0>0       -0.2751
      4  H14        6.8040   36.2470   59.1750 H       0  <0>0        0.1497
      5  C12        8.1890   34.3570   60.3630 C.3     0  <0>0        0.0998
      6  C13        9.4670   35.1990   60.3850 C.3     0  <0>0        0.1211
      7  C14       10.0480   35.2810   58.9710 C.3     0  <0>0        0.0162
      8  C15       10.4750   34.5600   61.3050 C.ar    0  <0>0       -0.0122
      9  C20       11.4950   35.3190   61.8480 C.ar    0  <0>0       -0.0038
     10  C19       12.4170   34.7320   62.6930 C.ar    0  <0>0       -0.0003
     11  C18       12.3220   33.3870   62.9940 C.ar    0  <0>0       -0.0000
     12  C17       11.3030   32.6280   62.4520 C.ar    0  <0>0       -0.0003
     13  C16       10.3760   33.2150   61.6110 C.ar    0  <0>0       -0.0038
     14  C21        9.1460   36.5870   60.8770 C.2     0  <0>0        0.3680
     15  O2         8.5460   36.7360   61.9150 O.co2   0  <0>0       -0.2453
     16  O3         9.5290   37.6560   60.1610 O.co2   0  <0>0       -0.2453
     17  C4         6.3160   35.5280   57.2380 C.3     0  <0>0        0.0940
     18  C2         6.9230   36.6900   56.4480 C.3     0  <0>0        0.0222
     19  C1         7.4040   37.7710   57.4190 C.3     0  <0>0        0.0020
     20  C3         8.1070   36.1830   55.6230 C.3     0  <0>0        0.0020
     21  C5         4.8250   35.7200   57.3480 C.ar    0  <0>0       -0.0045
     22  C10        4.2170   35.7130   58.5890 C.ar    0  <0>0       -0.0027
     23  C9         2.8500   35.8900   58.6900 C.ar    0  <0>0       -0.0003
     24  C8         2.0900   36.0730   57.5500 C.ar    0  <0>0       -0.0000
     25  C7         2.6990   36.0800   56.3090 C.ar    0  <0>0       -0.0003
     26  C6         4.0670   35.9090   56.2070 C.ar    0  <0>0       -0.0027
@<TRIPOS>BOND
     1    20    18    1
     2    26    25   ar
     3    26    21   ar
     4    25    24   ar
     5    18    17    1
     6    18    19    1
     7    17    21    1
     8    17     1    1
     9    21    22   ar
    10    24    23   ar
    11     3     2    2
    12     1     2   am
    13     1     4    1
    14    22    23   ar
    15     7     6    1
    16     2     5    1
    17    16    14   ar
    18     5     6    1
    19     6    14    1
    20     6     8    1
    21    14    15   ar
    22     8    13   ar
    23     8     9   ar
    24    13    12   ar
    25     9    10   ar
    26    12    11   ar
    27    10    11   ar
