@<TRIPOS>MOLECULE
ZINC05734970_replica-1.pdb
 22 22 0 0 0
SMALL
GASTEIGER

@<TRIPOS>ATOM
      1  O1         8.0470   34.4010   58.1610 O.3     0  <0>0       -0.4435
      2  C8         9.0650   35.4370   58.1430 C.3     0  <0>0        0.2342
      3  C7        10.0000   35.2410   59.3080 C.2     0  <0>0        0.0123
      4  C6        10.0420   36.1290   60.2700 C.2     0  <0>0       -0.0443
      5  C19        9.2450   37.4030   60.1560 C.3     0  <0>0        0.0261
      6  C5        10.8880   35.8770   61.4920 C.3     0  <0>0        0.0265
      7  C4        11.1540   34.3770   61.6280 C.3     0  <0>0        0.0297
      8  C3        12.5640   34.1580   62.1150 C.2     0  <0>0       -0.0342
      9  C2        12.8530   33.1000   62.8300 C.2     0  <0>0       -0.0478
     10  C1        11.7760   32.0990   63.1640 C.3     0  <0>0        0.0260
     11  C20       14.2620   32.8810   63.3170 C.3     0  <0>0        0.0260
     12  C9         6.8460   34.7190   57.6520 C.2     0  <0>0        0.3171
     13  O2         6.3110   33.9800   56.8600 O.2     0  <0>0       -0.2501
     14  C10        6.1650   35.9960   58.0700 C.3     0  <0>0        0.1033
     15  C12        5.7560   36.1310   59.5390 C.3     0  <0>0        0.0146
     16  C11        4.6880   35.9130   58.4650 C.3     0  <0>0        0.0325
     17  C13        6.0700   34.9580   60.4700 C.3     0  <0>0        0.0009
     18  C14        5.8480   37.5190   60.1740 C.3     0  <0>0        0.0009
     19  C15        4.0260   34.5610   58.4050 C.2     0  <0>0       -0.0344
     20  C16        2.7240   34.4640   58.5110 C.2     0  <0>0       -0.0478
     21  C17        1.8880   35.7050   58.6930 C.3     0  <0>0        0.0260
     22  C18        2.0620   33.1110   58.4500 C.3     0  <0>0        0.0260
@<TRIPOS>BOND
     1    13    12    2
     2    12    14    1
     3    12     1    1
     4    14    16    1
     5    14    15    1
     6     2     1    1
     7     2     3    1
     8    19    16    1
     9    19    20    2
    10    22    20    1
    11    16    15    1
    12    20    21    1
    13     3     4    2
    14    15    18    1
    15    15    17    1
    16     5     4    1
    17     4     6    1
    18     6     7    1
    19     7     8    1
    20     8     9    2
    21     9    10    1
    22     9    11    1
