@<TRIPOS>MOLECULE
ZINC00452692_replica-1.pdb
 25 26 0 0 0
SMALL
GASTEIGER

@<TRIPOS>ATOM
      1  C11        0.0480   30.5400   55.1560 C.2     0  <0>0        0.1411
      2  S1        -1.4860   31.0860   55.6840 S.2     0  <0>0       -0.0182
      3  N2         0.1410   29.4570   54.3600 N.am    0  <0>0       -0.2635
      4  C12       -0.9750   28.8030   53.9790 C.2     0  <0>0        0.2504
      5  O1        -2.0630   29.1910   54.3530 O.2     0  <0>0       -0.2698
      6  H15        1.0100   29.1470   54.0610 H       0  <0>0        0.1568
      7  N1         1.1640   31.1970   55.5340 N.am    0  <0>0       -0.2956
      8  H14        1.9190   31.2560   54.9280 H       0  <0>0        0.1539
      9  C8         1.2310   31.7940   56.7970 C.ar    0  <0>0        0.0495
     10  C7         1.3790   31.0070   57.9310 C.ar    0  <0>0        0.0143
     11  C6         1.4450   31.5990   59.1770 C.ar    0  <0>0       -0.0030
     12  C5         1.3630   32.9740   59.2960 C.ar    0  <0>0       -0.0224
     13  C10        1.2150   33.7610   58.1680 C.ar    0  <0>0       -0.0030
     14  C9         1.1540   33.1760   56.9190 C.ar    0  <0>0        0.0143
     15  C3         1.4350   33.6170   60.6570 C.3     0  <0>0        0.0223
     16  C4         0.2310   34.5420   60.8490 C.3     0  <0>0        0.0047
     17  C2         1.4210   32.5310   61.7350 C.3     0  <0>0        0.0044
     18  C1         0.1590   32.6750   62.5880 C.3     0  <0>0        0.0003
     19  C13       -0.8720   27.6160   53.1060 C.ar    0  <0>0        0.0498
     20  C18       -0.2180   26.4680   53.5580 C.ar    0  <0>0       -0.0175
     21  C17       -0.1270   25.3620   52.7380 C.ar    0  <0>0       -0.0041
     22  C19        0.3840   26.4370   54.9400 C.3     0  <0>0        0.0312
     23  C16       -0.6810   25.3880   51.4710 C.ar    0  <0>0       -0.0003
     24  C15       -1.3290   26.5240   51.0160 C.ar    0  <0>0        0.0001
     25  C14       -1.4330   27.6340   51.8270 C.ar    0  <0>0        0.0042
@<TRIPOS>BOND
     1    24    23   ar
     2    24    25   ar
     3    23    21   ar
     4    25    19   ar
     5    21    20   ar
     6    19    20   ar
     7    19     4    1
     8    20    22    1
     9     4     5    2
    10     4     3   am
    11     6     3    1
    12     3     1    1
    13     8     7    1
    14     1     7    1
    15     1     2    2
    16     7     9    1
    17     9    14   ar
    18     9    10   ar
    19    14    13   ar
    20    10    11   ar
    21    13    12   ar
    22    11    12   ar
    23    12    15    1
    24    15    16    1
    25    15    17    1
    26    17    18    1
