@<TRIPOS>MOLECULE
ZINC10287121_replica-1.pdb
 29 31 0 0 0
SMALL
GASTEIGER

@<TRIPOS>ATOM
      1  N1         2.3660   31.7860   56.1680 N.am    0  <0>0       -0.2867
      2  C11        1.1930   31.1280   56.2440 C.2     0  <0>0        0.3011
      3  O3         0.5430   31.1570   57.2720 O.2     0  <0>0       -0.2528
      4  N2         0.7370   30.4380   55.1790 N.am    0  <0>0       -0.2868
      5  H15        2.8840   31.7620   55.3490 H       0  <0>0        0.1512
      6  H16        1.2550   30.4150   54.3580 H       0  <0>0        0.1512
      7  C2         2.8620   32.5350   57.3260 C.3     0  <0>0        0.0986
      8  C1         3.8810   31.6850   58.0860 C.3     0  <0>0        0.0263
      9  C3         3.5180   33.8080   56.8570 C.ar    0  <0>0        0.0325
     10  C8         2.7400   34.8820   56.4540 C.ar    0  <0>0        0.1364
     11  C7         3.3440   36.0540   56.0220 C.ar    0  <0>0        0.0397
     12  C6         4.7220   36.1510   55.9990 C.ar    0  <0>0        0.0400
     13  C5         5.5000   35.0750   56.3970 C.ar    0  <0>0        0.1387
     14  C4         4.8970   33.9030   56.8290 C.ar    0  <0>0        0.0372
     15  O1         1.3840   34.7860   56.4810 O.3     0  <0>0       -0.4717
     16  C9         0.7120   35.4120   57.5780 C.3     0  <0>0        0.2525
     17  O2         6.8570   35.1700   56.3690 O.3     0  <0>0       -0.4714
     18  C10        7.4150   36.2920   55.6830 C.3     0  <0>0        0.2525
     19  C12       -0.5400   29.7240   55.2600 C.3     0  <0>0        0.0955
     20  C13       -0.5100   28.5360   54.3330 C.ar    0  <0>0       -0.0044
     21  C18        0.1300   27.3730   54.7200 C.ar    0  <0>0       -0.0018
     22  C17        0.1570   26.2830   53.8720 C.ar    0  <0>0        0.0111
     23  C16       -0.4570   26.3550   52.6330 C.ar    0  <0>0        0.0577
     24  C15       -1.0970   27.5190   52.2460 C.ar    0  <0>0        0.0111
     25 Cl         -0.4240   24.9860   51.5670 Cl      0  <0>0       -0.0822
     26  C14       -1.1280   28.6070   53.0980 C.ar    0  <0>0       -0.0018
     27  C19       -1.6770   30.6620   54.8510 C.3     0  <0>0        0.0223
     28  C21       -3.0940   30.0860   54.8300 C.3     0  <0>0        0.0020
     29  C20       -2.6820   31.0640   55.9320 C.3     0  <0>0        0.0020
@<TRIPOS>BOND
     1    25    23    1
     2    24    23   ar
     3    24    26   ar
     4    23    22   ar
     5    26    20   ar
     6    22    21   ar
     7    20    21   ar
     8    20    19    1
     9     6     4    1
    10    28    27    1
    11    28    29    1
    12    27    19    1
    13    27    29    1
    14     4    19    1
    15     4     2   am
    16     5     1    1
    17    18    17    1
    18    12    11   ar
    19    12    13   ar
    20    11    10   ar
    21     1     2   am
    22     1     7    1
    23     2     3    2
    24    17    13    1
    25    13    14   ar
    26    10    15    1
    27    10     9   ar
    28    15    16    1
    29    14     9   ar
    30     9     7    1
    31     7     8    1
