@<TRIPOS>MOLECULE
ZINC23328416_replica-1.pdb
 28 30 0 0 0
SMALL
GASTEIGER

@<TRIPOS>ATOM
      1  C9         6.9810   33.8400   56.6120 C.ar    0  <0>0        0.2042
      2  N1         6.8410   33.2030   55.4840 N.ar    0  <0>0       -0.1274
      3  N2         5.6620   33.3980   55.0100 N.ar    0  <0>0       -0.1207
      4  C10        4.9800   34.1750   55.8200 C.ar    0  <0>0        0.2094
      5  N3         5.7990   34.4780   56.8680 N.ar    0  <0>0       -0.2242
      6  C8         8.2170   33.8690   57.4740 C.3     0  <0>0        0.2719
      7  O1         8.7660   35.1890   57.4750 O.3     0  <0>0       -0.4675
      8  C6         9.2330   35.6610   58.6610 C.ar    0  <0>0        0.1348
      9  C5         8.8580   36.9210   59.1030 C.ar    0  <0>0        0.0115
     10  C4         9.3310   37.3960   60.3110 C.ar    0  <0>0       -0.0016
     11  C3        10.1860   36.6240   61.0730 C.ar    0  <0>0       -0.0044
     12  C2        10.5670   35.3690   60.6320 C.ar    0  <0>0       -0.0189
     13  C1        11.5000   34.5290   61.4640 C.3     0  <0>0        0.0311
     14  C7        10.0920   34.8860   59.4270 C.ar    0  <0>0        0.0323
     15  C16        7.9310   37.7670   58.2710 C.3     0  <0>0        0.0253
     16  C17        7.1190   38.6870   59.1850 C.3     0  <0>0        0.0048
     17  C18        8.7500   38.6130   57.2940 C.3     0  <0>0        0.0048
     18  N4         5.5020   35.2620   57.9470 N.pl3   0  <0>0       -0.2947
     19  H9         4.5170   35.7450   58.0220 H       0  <0>0        0.1627
     20  H10        6.2480   35.4090   58.7430 H       0  <0>0        0.1627
     21  S1         3.3200   34.7210   55.5950 S.3     0  <0>0       -0.0688
     22  C11        2.4300   33.3570   56.3830 C.3     0  <0>0        0.0979
     23  C12        1.8130   33.8370   57.6710 C.ar    0  <0>0        0.0194
     24  S2         0.8990   32.9110   58.8940 S.2     0  <0>0       -0.0790
     25  C15        0.5730   34.2480   60.0310 C.ar    0  <0>0        0.0867
     26  C14        1.1670   35.2970   59.4080 C.ar    0  <0>0        0.0182
     27 Cl         -0.2870   34.2170   61.5380 Cl      0  <0>0       -0.0752
     28  C13        1.8020   35.0850   58.1980 C.ar    0  <0>0        0.0045
@<TRIPOS>BOND
     1     3     2   ar
     2     3     4   ar
     3     2     1   ar
     4    21     4    1
     5    21    22    1
     6     4     5   ar
     7    22    23    1
     8     1     5   ar
     9     1     6    1
    10     5    18    1
    11    17    15    1
    12     6     7    1
    13     7     8    1
    14    23    28   ar
    15    23    24   ar
    16    18    19    1
    17    18    20    1
    18    28    26   ar
    19    15     9    1
    20    15    16    1
    21     8     9   ar
    22     8    14   ar
    23    24    25   ar
    24     9    10   ar
    25    26    25   ar
    26    14    12   ar
    27    25    27    1
    28    10    11   ar
    29    12    11   ar
    30    12    13    1
