@<TRIPOS>MOLECULE
ZINC44138348_replica-1.pdb
 32 34 0 0 0
SMALL
GASTEIGER

@<TRIPOS>ATOM
      1  C4         5.8720   34.4550   57.1160 C.ar    0  <0>0        0.0865
      2  C5         5.7110   35.5390   56.2290 C.ar    0  <0>0        0.0882
      3  C6         6.5050   36.6840   56.3720 C.ar    0  <0>0        0.0612
      4  C7         7.4610   36.7530   57.3970 C.ar    0  <0>0        0.0819
      5  C8         7.6220   35.6730   58.2810 C.ar    0  <0>0        0.0111
      6  C9         6.8220   34.5280   58.1430 C.ar    0  <0>0        0.0076
      7  C22        8.2730   37.9230   57.5420 C.1     0  <0>0        0.1017
      8  N1         8.9170   38.8520   57.6560 N.1     0  <0>0       -0.1908
      9  C23        4.7370   35.4690   55.1830 C.1     0  <0>0        0.1019
     10  N3         3.9630   35.4140   54.3520 N.1     0  <0>0       -0.1908
     11  N2         6.3480   37.7490   55.5010 N.pl3   0  <0>0       -0.3559
     12  H14        5.5230   37.8470   55.0000 H       0  <0>0        0.1424
     13  H15        7.0620   38.3960   55.3920 H       0  <0>0        0.1424
     14  C16        8.6300   35.7460   59.3620 C.ar    0  <0>0        0.0007
     15  C21        8.3640   36.4800   60.5190 C.ar    0  <0>0        0.0009
     16  C20        9.3060   36.5400   61.5250 C.ar    0  <0>0        0.0114
     17  C19       10.5170   35.8830   61.3850 C.ar    0  <0>0        0.0577
     18  C18       10.7880   35.1580   60.2360 C.ar    0  <0>0        0.0114
     19 Cl         11.6990   35.9690   62.6520 Cl      0  <0>0       -0.0822
     20  C17        9.8530   35.0860   59.2250 C.ar    0  <0>0        0.0009
     21  C10        6.9880   33.3920   59.0780 C.ar    0  <0>0        0.0003
     22  C15        6.2590   33.3490   60.2670 C.ar    0  <0>0        0.0009
     23  C14        6.4130   32.2850   61.1300 C.ar    0  <0>0        0.0114
     24  C13        7.2990   31.2660   60.8250 C.ar    0  <0>0        0.0577
     25  C12        8.0290   31.3050   59.6500 C.ar    0  <0>0        0.0114
     26 Cl          7.4930   29.9330   61.9200 Cl      0  <0>0       -0.0822
     27  C11        7.8790   32.3610   58.7750 C.ar    0  <0>0        0.0009
     28  C3         5.0350   33.2500   56.9670 C.2     0  <0>0        0.3419
     29  O2         5.4180   32.3280   56.2750 O.2     0  <0>0       -0.2449
     30  O1         3.8470   33.1720   57.5970 O.3     0  <0>0       -0.4454
     31  C2         2.7270   32.7420   56.8200 C.3     0  <0>0        0.2089
     32  C1         1.6720   33.8490   56.7900 C.3     0  <0>0        0.0513
@<TRIPOS>BOND
     1    10     9    3
     2    12    11    1
     3     9     2    1
     4    13    11    1
     5    11     3    1
     6     2     3   ar
     7     2     1   ar
     8    29    28    2
     9     3     4   ar
    10    32    31    1
    11    31    30    1
    12    28     1    1
    13    28    30    1
    14     1     6   ar
    15     4     7    1
    16     4     5   ar
    17     7     8    3
    18     6     5   ar
    19     6    21    1
    20     5    14    1
    21    27    21   ar
    22    27    25   ar
    23    21    22   ar
    24    20    14   ar
    25    20    18   ar
    26    14    15   ar
    27    25    24   ar
    28    18    17   ar
    29    22    23   ar
    30    15    16   ar
    31    24    23   ar
    32    24    26    1
    33    17    16   ar
    34    17    19    1
