@<TRIPOS>MOLECULE
ZINC40766409_replica-1.pdb
 21 22 0 0 0
SMALL
GASTEIGER

@<TRIPOS>ATOM
      1  N3         0.6710   30.7550   55.1350 N.pl3   0  <0>0       -0.2221
      2  H10        0.8400   31.3510   54.3880 H       0  <0>0        0.2919
      3  C6         0.6690   31.2490   56.4290 C.2     0  <0>0        0.2999
      4  C5         0.5330   32.6180   56.6650 C.3     0  <0>0        0.1574
      5  C4         0.5370   33.0610   57.9740 C.2     0  <0>0        0.0478
      6  N2         0.6730   32.1790   58.9540 N.2     0  <0>0       -0.2268
      7  C7         0.7950   30.8920   58.6980 C.3     0  <0>0        0.3908
      8  N1         0.7970   30.4260   57.4660 N.2     0  <0>0       -0.0409
      9  C2         0.3930   34.5290   58.2820 C.3     0  <0>0        0.0365
     10  C1         1.1040   34.8450   59.6000 C.3     0  <0>0        0.0060
     11  C3         1.0190   35.3510   57.1550 C.3     0  <0>0        0.0060
     12  C8         0.4150   29.3330   54.8930 C.3     0  <0>0        0.2026
     13  C9        -0.9930   29.1580   54.3210 C.3     0  <0>0        0.0618
     14  C10       -1.9580   28.7820   55.4460 C.3     0  <0>0        0.0085
     15  C11       -1.4480   30.4690   53.6760 C.3     0  <0>0        0.0085
     16  C12       -0.9820   28.0650   53.2820 C.ar    0  <0>0       -0.0189
     17  C17       -1.6400   28.2460   52.0810 C.ar    0  <0>0       -0.0042
     18  C16       -1.6270   27.2460   51.1280 C.ar    0  <0>0       -0.0003
     19  C15       -0.9610   26.0600   51.3790 C.ar    0  <0>0       -0.0000
     20  C14       -0.3080   25.8770   52.5840 C.ar    0  <0>0       -0.0003
     21  C13       -0.3190   26.8790   53.5350 C.ar    0  <0>0       -0.0042
@<TRIPOS>BOND
     1    18    19   ar
     2    18    17   ar
     3    19    20   ar
     4    17    16   ar
     5    20    21   ar
     6    16    21   ar
     7    16    13    1
     8    15    13    1
     9    13    12    1
    10    13    14    1
    11     2     1    1
    12    12     1    1
    13     1     3    1
    14     3     4    1
    15     3     8    2
    16     4     5    1
    17    11     9    1
    18     8     7    1
    19     5     9    1
    20     5     6    2
    21     9    10    1
    22     7     6    1
