@<TRIPOS>MOLECULE
ZINC45862610_replica-1.pdb
 30 32 0 0 0
SMALL
GASTEIGER

@<TRIPOS>ATOM
      1  C4         1.8590   32.6590   56.9030 C.3     0  <0>0        0.1510
      2  C2         0.6940   33.6450   56.7940 C.3     0  <0>0        0.0270
      3  C1        -0.2010   33.5150   58.0280 C.3     0  <0>0        0.0022
      4  C3         1.2400   35.0720   56.7080 C.3     0  <0>0        0.0022
      5  C5         1.3450   31.2530   56.7230 C.2     0  <0>0        0.2404
      6  O1         1.3580   30.4800   57.6580 O.2     0  <0>0       -0.2733
      7  N1         0.8740   30.8550   55.5260 N.am    0  <0>0       -0.3027
      8  H9         0.8180   31.4870   54.7920 H       0  <0>0        0.1495
      9  C6         0.4460   29.4680   55.3310 C.3     0  <0>0        0.0934
     10  C7        -0.8120   29.4400   54.4620 C.3     0  <0>0        0.0370
     11  C9        -2.1280   29.8790   55.1080 C.3     0  <0>0        0.0061
     12  C8        -1.4410   30.7830   54.0840 C.3     0  <0>0        0.0061
     13  C10       -0.8740   28.3310   53.4420 C.ar    0  <0>0       -0.0212
     14  C15       -0.2460   27.1260   53.6920 C.ar    0  <0>0       -0.0042
     15  C14       -0.3070   26.1080   52.7590 C.ar    0  <0>0       -0.0003
     16  C13       -0.9890   26.2990   51.5710 C.ar    0  <0>0       -0.0000
     17  C12       -1.6130   27.5060   51.3190 C.ar    0  <0>0       -0.0003
     18  C11       -1.5550   28.5220   52.2550 C.ar    0  <0>0       -0.0042
     19  N2         2.8470   32.9540   55.8630 N.am    0  <0>0       -0.2640
     20  C16        4.1200   33.2360   56.2030 C.2     0  <0>0        0.4023
     21  O2         4.4480   33.2450   57.3730 O.2     0  <0>0       -0.2264
     22  H21        2.5850   32.9470   54.9290 H       0  <0>0        0.1532
     23  O3         5.0290   33.5080   55.2480 O.3     0  <0>0       -0.4297
     24  C17        6.4030   33.3110   55.5850 C.3     0  <0>0        0.2367
     25  C18        7.0450   34.6440   55.8750 C.ar    0  <0>0        0.0213
     26  C23        6.7810   35.7300   55.0610 C.ar    0  <0>0       -0.0007
     27  C22        7.3650   36.9530   55.3300 C.ar    0  <0>0       -0.0002
     28  C21        8.2200   37.0880   56.4080 C.ar    0  <0>0       -0.0000
     29  C20        8.4870   36.0020   57.2180 C.ar    0  <0>0       -0.0002
     30  C19        7.9000   34.7790   56.9520 C.ar    0  <0>0       -0.0007
@<TRIPOS>BOND
     1    17    16   ar
     2    17    18   ar
     3    16    15   ar
     4    18    13   ar
     5    15    14   ar
     6    13    14   ar
     7    13    10    1
     8    12    10    1
     9    12    11    1
    10    10    11    1
    11    10     9    1
    12     8     7    1
    13    22    19    1
    14    26    27   ar
    15    26    25   ar
    16    23    24    1
    17    23    20    1
    18    27    28   ar
    19     9     7    1
    20     7     5   am
    21    24    25    1
    22    19    20   am
    23    19     1    1
    24    25    30   ar
    25    20    21    2
    26    28    29   ar
    27     4     2    1
    28     5     1    1
    29     5     6    2
    30     2     1    1
    31     2     3    1
    32    30    29   ar
