@<TRIPOS>MOLECULE
ZINC27663579_replica-1.pdb
 32 34 0 0 0
SMALL
GASTEIGER

@<TRIPOS>ATOM
      1  C12        5.9980   35.5020   59.5380 C.3     0  <0>0       -0.0147
      2  C11        6.9230   34.3720   59.0810 C.3     0  <0>0        0.0732
      3  N1         7.9460   34.1360   60.1010 N.am    0  <0>0       -0.3026
      4  C10        9.2390   34.4090   59.8340 C.2     0  <0>0        0.2458
      5  O2         9.5550   34.8500   58.7460 O.2     0  <0>0       -0.2701
      6  H13        7.6610   33.7370   61.0860 H       0  <0>0        0.1497
      7  C7        10.2710   34.1720   60.8630 C.ar    0  <0>0        0.0536
      8  C6        10.3590   32.9280   61.4950 C.ar    0  <0>0        0.0076
      9  C5        11.3230   32.7120   62.4540 C.ar    0  <0>0        0.0370
     10  C4        12.2090   33.7270   62.7930 C.ar    0  <0>0        0.1386
     11  C9        12.1260   34.9660   62.1660 C.ar    0  <0>0        0.0370
     12  C8        11.1670   35.1890   61.2030 C.ar    0  <0>0        0.0076
     13  O1        13.1590   33.5100   63.7380 O.3     0  <0>0       -0.4755
     14  C3        14.3250   32.7910   63.3320 C.3     0  <0>0        0.2054
     15  C2        15.5500   33.7020   63.4420 C.3     0  <0>0        0.0473
     16  C1        15.8420   33.9900   64.9150 C.3     0  <0>0        0.0040
     17  C13        4.5870   34.9830   59.6500 C.ar    0  <0>0       -0.0397
     18  C18        3.5520   35.6570   59.0300 C.ar    0  <0>0       -0.0031
     19  C17        2.2580   35.1850   59.1380 C.ar    0  <0>0        0.0365
     20  C16        1.9980   34.0330   59.8640 C.ar    0  <0>0        0.1387
     21  C15        3.0400   33.3550   60.4810 C.ar    0  <0>0        0.0365
     22  C14        4.3330   33.8300   60.3700 C.ar    0  <0>0       -0.0031
     23  O3         0.7250   33.5680   59.9720 O.3     0  <0>0       -0.4714
     24  C19       -0.0690   34.0950   61.0360 C.3     0  <0>0        0.2525
     25  N2         6.0400   36.5950   58.5570 N.4     0  <0>0        0.3919
     26  C25        6.5480   37.8410   59.1730 C.3     0  <0>0       -0.0767
     27  C24        8.0510   37.9160   59.1850 C.3     0  <0>0       -0.0228
     28  C23        8.5120   38.6810   57.9260 C.3     0  <0>0       -0.0022
     29  C22        8.4810   37.8450   56.7310 C.3     0  <0>0       -0.0022
     30  C21        7.0610   37.3330   56.4130 C.3     0  <0>0       -0.0228
     31  C20        6.7540   36.1790   57.3300 C.3     0  <0>0       -0.0767
     32  H35        5.0140   36.8250   58.2370 H       0  <0>0       -0.0791
@<TRIPOS>BOND
     1    30    29    1
     2    30    31    1
     3    29    28    1
     4    31    25    1
     5    28    27    1
     6    32    25    1
     7    25    26    1
     8    25     1    1
     9     5     4    2
    10    18    19   ar
    11    18    17   ar
    12     2     1    1
    13     2     3    1
    14    19    20   ar
    15    26    27    1
    16     1    17    1
    17    17    22   ar
    18     4     3   am
    19     4     7    1
    20    20    23    1
    21    20    21   ar
    22    23    24    1
    23     3     6    1
    24    22    21   ar
    25     7    12   ar
    26     7     8   ar
    27    12    11   ar
    28     8     9   ar
    29    11    10   ar
    30     9    10   ar
    31    10    13    1
    32    14    15    1
    33    14    13    1
    34    15    16    1
