@<TRIPOS>MOLECULE
ZINC37775872_replica-1.pdb
 23 24 0 0 0
SMALL
GASTEIGER

@<TRIPOS>ATOM
      1  N1         6.6610   36.7730   57.7380 N.3     0  <0>0       -0.2958
      2  H11        6.1550   37.6320   57.5850 H       0  <0>0        0.1235
      3  C2         6.0920   35.6780   56.9400 C.3     0  <0>0        0.0588
      4  C1         5.0670   36.2440   55.9550 C.3     0  <0>0        0.0175
      5  C3         5.4080   34.6730   57.8680 C.3     0  <0>0        0.0466
      6  C4         6.4290   33.7000   58.3980 C.ar    0  <0>0        0.0340
      7  C9         6.7140   33.6640   59.7510 C.ar    0  <0>0        0.1383
      8  C8         7.6480   32.7650   60.2370 C.ar    0  <0>0        0.0295
      9  F1         6.0760   34.5000   60.5990 F       0  <0>0       -0.2044
     10  C7         8.3060   31.9130   59.3690 C.ar    0  <0>0        0.0046
     11  C6         8.0260   31.9530   58.0170 C.ar    0  <0>0        0.0295
     12  C5         7.0870   32.8470   57.5290 C.ar    0  <0>0        0.1383
     13  F2         6.8130   32.8850   56.2070 F       0  <0>0       -0.2044
     14  C10        8.0910   36.9450   57.4510 C.3     0  <0>0        0.0798
     15  C11        8.4920   36.0320   56.2900 C.3     0  <0>0        0.0221
     16  C12        8.8960   36.5840   58.6740 C.ar    0  <0>0        0.0257
     17  C17        8.9070   37.4300   59.7720 C.ar    0  <0>0        0.1309
     18  C16        9.6440   37.0930   60.8980 C.ar    0  <0>0        0.0363
     19  C15       10.3740   35.9200   60.9180 C.ar    0  <0>0        0.0031
     20  C14       10.3660   35.0810   59.8200 C.ar    0  <0>0       -0.0001
     21  C13        9.6280   35.4130   58.6980 C.ar    0  <0>0        0.0000
     22  O1         8.1920   38.5870   59.7480 O.3     0  <0>0       -0.5058
     23  H19        7.2540   38.4730   59.9510 H       0  <0>0        0.2922
@<TRIPOS>BOND
     1     4     3    1
     2    13    12    1
     3    15    14    1
     4     3     1    1
     5     3     5    1
     6    14     1    1
     7    14    16    1
     8    12    11   ar
     9    12     6   ar
    10     2     1    1
    11     5     6    1
    12    11    10   ar
    13     6     7   ar
    14    16    21   ar
    15    16    17   ar
    16    21    20   ar
    17    10     8   ar
    18    22    17    1
    19    22    23    1
    20     7     8   ar
    21     7     9    1
    22    17    18   ar
    23    20    19   ar
    24    18    19   ar
