@<TRIPOS>MOLECULE
ZINC05615761_replica-1.pdb
 34 38 0 0 0
SMALL
GASTEIGER

@<TRIPOS>ATOM
      1  N1         7.8430   34.5440   58.3300 N.pl3   0  <0>0       -0.2977
      2  C8         7.2570   35.4010   57.4180 C.ar    0  <0>0        0.0497
      3  C9         8.0530   36.1550   56.5600 C.ar    0  <0>0        0.0146
      4  C10        7.4700   37.0070   55.6460 C.ar    0  <0>0        0.0013
      5  C11        6.0910   37.1190   55.5640 C.ar    0  <0>0        0.0001
      6  C12        5.2830   36.3790   56.4010 C.ar    0  <0>0        0.0025
      7  C13        5.8600   35.5140   57.3300 C.ar    0  <0>0        0.0283
      8  C14        5.0160   34.7090   58.2370 C.2     0  <0>0        0.0695
      9  N2         3.7020   34.7860   58.1940 N.pl3   0  <0>0       -0.2127
     10  C21        5.7000   33.8150   59.1940 C.2     0  <0>0        0.0151
     11  C22        7.1030   33.7680   59.2030 C.3     0  <0>0        0.1194
     12  C23        7.7480   32.9270   60.1040 C.2     0  <0>0       -0.0022
     13  C24        7.0110   32.1520   60.9740 C.2     0  <0>0       -0.0026
     14  C25        5.6260   32.2000   60.9640 C.2     0  <0>0       -0.0005
     15  C26        4.9670   33.0270   60.0790 C.2     0  <0>0       -0.0011
     16  C15        2.9410   33.7990   58.7530 C.ar    0  <0>0        0.0706
     17  C20        2.8230   32.5590   58.1200 C.ar    0  <0>0        0.0179
     18  C19        2.0520   31.5680   58.6910 C.ar    0  <0>0        0.0212
     19  C18        1.3950   31.8000   59.8870 C.ar    0  <0>0        0.1218
     20  C17        1.5060   33.0250   60.5190 C.ar    0  <0>0        0.0212
     21  C16        2.2790   34.0240   59.9640 C.ar    0  <0>0        0.0179
     22  S1         0.4120   30.5280   60.6070 S.O2    0  <0>0        0.0572
     23  O1        -0.2400   31.1050   61.7310 O.2     0  <0>0       -0.1532
     24  O2        -0.3040   29.9160   59.5430 O.2     0  <0>0       -0.1532
     25  N3         1.4510   29.3820   61.2000 N.3     0  <0>0       -0.2035
     26  H16        1.1080   28.5270   61.5020 H       0  <0>0        0.1442
     27  H17        2.4020   29.5670   61.2440 H       0  <0>0        0.1442
     28  C7         9.3050   34.4590   58.3790 C.3     0  <0>0        0.1181
     29  C4         9.8100   35.1890   59.5960 C.ar    0  <0>0       -0.0024
     30  C3         9.3530   36.4640   59.8770 C.ar    0  <0>0       -0.0026
     31  C2         9.8130   37.1310   60.9970 C.ar    0  <0>0       -0.0003
     32  C1        10.7310   36.5250   61.8340 C.ar    0  <0>0       -0.0000
     33  C6        11.1920   35.2520   61.5510 C.ar    0  <0>0       -0.0003
     34  C5        10.7330   34.5860   60.4310 C.ar    0  <0>0       -0.0026
@<TRIPOS>BOND
     1     5     4   ar
     2     5     6   ar
     3     4     3   ar
     4     6     7   ar
     5     3     2   ar
     6     7     2   ar
     7     7     8    1
     8     2     1    1
     9    17    18   ar
    10    17    16   ar
    11     9     8    1
    12     9    16    1
    13     8    10    2
    14     1    28    1
    15     1    11    1
    16    28    29    1
    17    18    19   ar
    18    16    21   ar
    19    10    11    1
    20    10    15    1
    21    11    12    1
    22    24    22    2
    23    29    30   ar
    24    29    34   ar
    25    30    31   ar
    26    19    20   ar
    27    19    22    1
    28    21    20   ar
    29    15    14    2
    30    12    13    2
    31    34    33   ar
    32    22    25    1
    33    22    23    2
    34    14    13    1
    35    31    32   ar
    36    25    27    1
    37    25    26    1
    38    33    32   ar
