@<TRIPOS>MOLECULE
ZINC13125347_replica-1.pdb
 25 28 0 0 0
SMALL
GASTEIGER

@<TRIPOS>ATOM
      1  N1        -1.1970   30.2700   56.5960 N.pl3   0  <0>0       -0.2712
      2  C9        -1.7440   29.2160   57.3030 C.3     0  <0>0        0.1501
      3  C10       -2.6960   28.2500   57.0090 C.2     0  <0>0        0.0005
      4  C11       -3.0300   27.3080   57.9600 C.2     0  <0>0       -0.0024
      5  C12       -2.4210   27.3210   59.2070 C.2     0  <0>0        0.0021
      6  C13       -1.4820   28.2640   59.5140 C.2     0  <0>0        0.0296
      7  C14       -1.1260   29.2290   58.5660 C.2     0  <0>0        0.1328
      8  N2        -0.2520   30.2650   58.5740 N.2     0  <0>0       -0.3892
      9  C15       -0.2850   30.8790   57.4160 C.2     0  <0>0        0.1850
     10  C8        -1.5280   30.6610   55.2230 C.3     0  <0>0        0.1202
     11  C7        -1.2050   29.5250   54.2860 C.ar    0  <0>0       -0.0063
     12  C2        -1.9260   29.3670   53.1170 C.ar    0  <0>0       -0.0242
     13  C1        -3.0340   30.3310   52.7790 C.3     0  <0>0        0.0308
     14  C3        -1.6250   28.3290   52.2550 C.ar    0  <0>0       -0.0045
     15  C4        -0.6080   27.4450   52.5650 C.ar    0  <0>0       -0.0003
     16  C5         0.1090   27.6010   53.7370 C.ar    0  <0>0       -0.0003
     17  C6        -0.1910   28.6390   54.5990 C.ar    0  <0>0       -0.0029
     18  C16        0.5360   32.0520   57.0520 C.ar    0  <0>0        0.0611
     19  C20        1.5550   31.9270   56.1340 C.ar    0  <0>0        0.0786
     20  N3         2.3040   32.9960   55.7930 N.ar    0  <0>0       -0.3198
     21  C19        2.0820   34.2020   56.3480 C.ar    0  <0>0        0.2578
     22  H1         3.0170   32.8940   55.1440 H       0  <0>0        0.1690
     23  C18        1.0550   34.3750   57.2930 C.ar    0  <0>0        0.0607
     24  O1         2.7760   35.1530   56.0270 O.2     0  <0>0       -0.2672
     25  C17        0.2830   33.3100   57.6470 C.ar    0  <0>0        0.0102
@<TRIPOS>BOND
     1    14    15   ar
     2    14    12   ar
     3    15    16   ar
     4    13    12    1
     5    12    11   ar
     6    16    17   ar
     7    11    17   ar
     8    11    10    1
     9    22    20    1
    10    10     1    1
    11    20    19   ar
    12    20    21   ar
    13    24    21    2
    14    19    18   ar
    15    21    23   ar
    16     1     2    1
    17     1     9    1
    18     3     2    1
    19     3     4    2
    20    18     9    1
    21    18    25   ar
    22    23    25   ar
    23     2     7    1
    24     9     8    2
    25     4     5    1
    26     7     8    2
    27     7     6    1
    28     5     6    2
