@<TRIPOS>MOLECULE
ZINC32117472_replica-1.pdb
 22 23 0 0 0
SMALL
GASTEIGER

@<TRIPOS>ATOM
      1  C9        -1.5790   30.9370   55.6170 C.3     0  <0>0        0.1521
      2  C8        -0.6590   30.4920   54.4780 C.3     0  <0>0        0.1213
      3  N1        -1.4640   29.9390   53.3870 N.pl3   0  <0>0       -0.3304
      4  H9        -2.2620   30.5440   52.9310 H       0  <0>0        0.1469
      5  C5        -1.2200   28.6440   52.9240 C.ar    0  <0>0        0.0447
      6  C4        -1.7610   28.2220   51.7170 C.ar    0  <0>0        0.0140
      7  C3        -1.5170   26.9410   51.2610 C.ar    0  <0>0       -0.0030
      8  C2        -0.7340   26.0790   52.0070 C.ar    0  <0>0       -0.0218
      9  C1        -0.4700   24.6820   51.5080 C.3     0  <0>0        0.0310
     10  C7        -0.1930   26.4960   53.2100 C.ar    0  <0>0       -0.0030
     11  C6        -0.4290   27.7770   53.6680 C.ar    0  <0>0        0.0140
     12  C10       -1.8230   29.7780   56.5490 C.ar    0  <0>0        0.0059
     13  C15       -2.8710   28.9080   56.3090 C.ar    0  <0>0       -0.0022
     14  C14       -3.0920   27.8430   57.1610 C.ar    0  <0>0       -0.0045
     15  C13       -2.2720   27.6530   58.2580 C.ar    0  <0>0       -0.0225
     16  C12       -1.2250   28.5230   58.4970 C.ar    0  <0>0       -0.0045
     17  C11       -1.0010   29.5860   57.6430 C.ar    0  <0>0       -0.0022
     18  C16       -2.5170   26.4940   59.1900 C.3     0  <0>0        0.0224
     19  C17       -2.5010   26.9910   60.6370 C.3     0  <0>0        0.0047
     20  C18       -1.4190   25.4440   58.9980 C.3     0  <0>0        0.0047
     21  O1        -0.9610   32.0050   56.3380 O.3     0  <0>0       -0.3783
     22  H23       -0.3410   31.7880   57.2200 H       0  <0>0        0.2109
@<TRIPOS>BOND
     1     7     6   ar
     2     7     8   ar
     3     9     8    1
     4     6     5   ar
     5     8    10   ar
     6     5     3    1
     7     5    11   ar
     8     4     3    1
     9    10    11   ar
    10     3     2    1
    11     2     1    1
    12     1    21    1
    13     1    12    1
    14    13    12   ar
    15    13    14   ar
    16    21    22    1
    17    12    17   ar
    18    14    15   ar
    19    17    16   ar
    20    15    16   ar
    21    15    18    1
    22    20    18    1
    23    18    19    1
