@<TRIPOS>MOLECULE
ZINC12903088_replica-1.pdb
 30 32 0 0 0
SMALL
GASTEIGER

@<TRIPOS>ATOM
      1  N1         8.9220   36.5330   59.0040 N.am    0  <0>0       -0.2986
      2  C14        8.3360   37.7450   58.9500 C.2     0  <0>0        0.2238
      3  O1         7.6000   38.1030   59.8440 O.2     0  <0>0       -0.2751
      4  H12        9.5120   36.2460   58.2890 H       0  <0>0        0.1500
      5  C7         8.6710   35.6480   60.1450 C.3     0  <0>0        0.1169
      6  C4         8.2560   34.2880   59.6440 C.ar    0  <0>0       -0.0003
      7  C3         7.3770   33.5190   60.3820 C.ar    0  <0>0       -0.0024
      8  C2         6.9960   32.2720   59.9220 C.ar    0  <0>0       -0.0003
      9  C1         7.4950   31.7950   58.7240 C.ar    0  <0>0       -0.0000
     10  C6         8.3740   32.5650   57.9860 C.ar    0  <0>0       -0.0003
     11  C5         8.7510   33.8140   58.4430 C.ar    0  <0>0       -0.0024
     12  C8         9.9270   35.5180   60.9670 C.ar    0  <0>0       -0.0003
     13  C13       10.6540   34.3420   60.9380 C.ar    0  <0>0       -0.0024
     14  C12       11.8070   34.2230   61.6910 C.ar    0  <0>0       -0.0003
     15  C11       12.2330   35.2790   62.4730 C.ar    0  <0>0       -0.0000
     16  C10       11.5080   36.4560   62.5020 C.ar    0  <0>0       -0.0003
     17  C9        10.3570   36.5770   61.7460 C.ar    0  <0>0       -0.0024
     18  C15        8.5940   38.6550   57.7770 C.3     0  <0>0        0.0967
     19  C16        8.5650   37.8400   56.4830 C.3     0  <0>0        0.0674
     20  S1         6.8450   37.5900   55.9650 S.3     0  <0>0       -0.1349
     21  C17        6.6800   35.7870   55.8480 C.3     0  <0>0        0.0837
     22  C18        5.7450   35.2970   56.9250 C.ar    0  <0>0       -0.0113
     23  C23        5.1790   34.0380   56.8240 C.ar    0  <0>0       -0.0032
     24  C22        4.3230   33.5830   57.8050 C.ar    0  <0>0        0.0063
     25  C21        4.0280   34.3960   58.9020 C.ar    0  <0>0        0.0798
     26  C20        4.6030   35.6650   58.9970 C.ar    0  <0>0        0.0063
     27  C19        5.4620   36.1050   58.0110 C.ar    0  <0>0       -0.0032
     28  C24        3.1130   33.9160   59.9560 C.2     0  <0>0        0.3878
     29  O2         3.5190   33.1620   60.8170 O.co2   0  <0>0       -0.2406
     30  O3         1.8250   34.3140   59.9650 O.co2   0  <0>0       -0.2406
@<TRIPOS>BOND
     1    21    20    1
     2    21    22    1
     3    20    19    1
     4    19    18    1
     5    23    22   ar
     6    23    24   ar
     7    22    27   ar
     8    18     2    1
     9    24    25   ar
    10    10    11   ar
    11    10     9   ar
    12    27    26   ar
    13     4     1    1
    14    11     6   ar
    15     9     8   ar
    16    25    26   ar
    17    25    28    1
    18     2     1   am
    19     2     3    2
    20     1     5    1
    21     6     5    1
    22     6     7   ar
    23     8     7   ar
    24    28    30   ar
    25    28    29   ar
    26     5    12    1
    27    13    12   ar
    28    13    14   ar
    29    12    17   ar
    30    14    15   ar
    31    17    16   ar
    32    15    16   ar
