@<TRIPOS>MOLECULE
ZINC05542742_replica-1.pdb
 30 31 0 0 0
SMALL
GASTEIGER

@<TRIPOS>ATOM
      1  C9        -0.1880   31.4420   55.5050 C.2     0  <0>0        0.2825
      2  O2         0.8210   30.7700   55.5170 O.2     0  <0>0       -0.2695
      3  N1        -0.1520   32.7210   55.9290 N.am    0  <0>0       -0.2306
      4  H9        -0.9590   33.2590   55.9200 H       0  <0>0        0.1729
      5  N2         1.0530   33.2750   56.3820 N.am    0  <0>0       -0.2302
      6  C10        1.0880   33.9430   57.5520 C.2     0  <0>0        0.2614
      7  O3         0.0760   34.0660   58.2130 O.2     0  <0>0       -0.2686
      8  H10        1.8610   33.1760   55.8550 H       0  <0>0        0.1731
      9  C11        2.3590   34.5320   58.0280 C.ar    0  <0>0        0.0548
     10  C16        2.9090   34.1230   59.2440 C.ar    0  <0>0        0.0042
     11  C15        4.0930   34.6770   59.6830 C.ar    0  <0>0       -0.0041
     12  C14        4.7360   35.6360   58.9190 C.ar    0  <0>0       -0.0228
     13  C13        4.1960   36.0460   57.7130 C.ar    0  <0>0       -0.0041
     14  C12        3.0150   35.4960   57.2600 C.ar    0  <0>0        0.0042
     15  C17        6.0320   36.2370   59.4050 C.3     0  <0>0        0.0189
     16  C18        5.7390   37.5230   60.1800 C.3     0  <0>0        0.0044
     17  C19        6.7440   35.2390   60.3210 C.3     0  <0>0        0.0044
     18  C20        6.9260   36.5560   58.2040 C.3     0  <0>0        0.0044
     19  C8        -1.4840   30.8470   55.0170 C.3     0  <0>0        0.2909
     20  O1        -1.6450   29.5380   55.5690 O.3     0  <0>0       -0.4659
     21  C6        -1.1260   28.5020   54.8590 C.ar    0  <0>0        0.1349
     22  C5        -0.4220   27.5000   55.5090 C.ar    0  <0>0        0.0115
     23  C4         0.1050   26.4470   54.7860 C.ar    0  <0>0       -0.0016
     24  C3        -0.0690   26.3910   53.4160 C.ar    0  <0>0       -0.0044
     25  C2        -0.7720   27.3900   52.7650 C.ar    0  <0>0       -0.0189
     26  C1        -0.9610   27.3260   51.2720 C.3     0  <0>0        0.0311
     27  C7        -1.3060   28.4410   53.4840 C.ar    0  <0>0        0.0323
     28  C21       -0.2310   27.5590   57.0020 C.3     0  <0>0        0.0253
     29  C22       -0.7350   26.2600   57.6340 C.3     0  <0>0        0.0048
     30  C23        1.2560   27.7360   57.3210 C.3     0  <0>0        0.0048
@<TRIPOS>BOND
     1    26    25    1
     2    25    24   ar
     3    25    27   ar
     4    24    23   ar
     5    27    21   ar
     6    23    22   ar
     7    21    22   ar
     8    21    20    1
     9    19     1    1
    10    19    20    1
    11     1     2    2
    12     1     3   am
    13    22    28    1
    14     8     5    1
    15     4     3    1
    16     3     5    1
    17     5     6   am
    18    28    30    1
    19    28    29    1
    20    14    13   ar
    21    14     9   ar
    22     6     9    1
    23     6     7    2
    24    13    12   ar
    25     9    10   ar
    26    18    15    1
    27    12    15    1
    28    12    11   ar
    29    10    11   ar
    30    15    16    1
    31    15    17    1
