@<TRIPOS>MOLECULE
ZINC49924792_replica-1.pdb
 23 24 0 0 0
SMALL
GASTEIGER

@<TRIPOS>ATOM
      1  C9         9.6120   36.7390   60.8610 C.3     0  <0>0        0.0550
      2  C8         9.3400   35.8860   59.6200 C.3     0  <0>0        0.1344
      3  C4         8.7850   36.7570   58.5230 C.ar    0  <0>0        0.0041
      4  C3         8.4560   36.2010   57.3010 C.ar    0  <0>0       -0.0040
      5  C2         7.9460   37.0000   56.2940 C.ar    0  <0>0        0.0054
      6  C1         7.5870   36.3940   54.9610 C.3     0  <0>0        0.0334
      7  C7         7.7710   38.3560   56.5080 C.ar    0  <0>0        0.1361
      8  C6         8.0970   38.9110   57.7350 C.ar    0  <0>0        0.0291
      9  F1         7.2790   39.1380   55.5230 F       0  <0>0       -0.2045
     10  C5         8.6060   38.1100   58.7400 C.ar    0  <0>0        0.0003
     11  O1         8.3920   34.8650   59.9430 O.3     0  <0>0       -0.3800
     12  H16        8.2560   34.2170   59.2390 H       0  <0>0        0.2108
     13  C10       10.7590   36.1210   61.6640 C.3     0  <0>0        0.0899
     14  N1        10.7290   34.6650   61.5180 N.pl3   0  <0>0       -0.3325
     15  H12       10.0230   34.2430   61.0030 H       0  <0>0        0.1468
     16  C11       11.7200   33.8810   62.1170 C.ar    0  <0>0        0.0456
     17  C16       11.3930   32.6520   62.6730 C.ar    0  <0>0        0.0280
     18  C15       12.3750   31.8770   63.2600 C.ar    0  <0>0        0.0863
     19  C14       13.6840   32.3310   63.3050 C.ar    0  <0>0        0.1507
     20 Cl         11.9690   30.3350   63.9480 Cl      0  <0>0       -0.0799
     21  C13       14.0100   33.5600   62.7560 C.ar    0  <0>0        0.0318
     22  F2        14.6420   31.5760   63.8830 F       0  <0>0       -0.2033
     23  C12       13.0320   34.3350   62.1640 C.ar    0  <0>0        0.0167
@<TRIPOS>BOND
     1     6     5    1
     2     9     7    1
     3     5     7   ar
     4     5     4   ar
     5     7     8   ar
     6     4     3   ar
     7     8    10   ar
     8     3    10   ar
     9     3     2    1
    10    12    11    1
    11     2    11    1
    12     2     1    1
    13     1    13    1
    14    15    14    1
    15    14    13    1
    16    14    16    1
    17    16    23   ar
    18    16    17   ar
    19    23    21   ar
    20    17    18   ar
    21    21    19   ar
    22    18    19   ar
    23    18    20    1
    24    19    22    1
