@<TRIPOS>MOLECULE
ZINC03830620_replica-1.pdb
 29 33 0 0 0
SMALL
GASTEIGER

@<TRIPOS>ATOM
      1  C3         2.1280   33.4130   57.7510 C.3     0  <0>0        0.1859
      2  C4         2.7250   32.7660   56.4860 C.3     0  <0>0        0.0474
      3  C5         2.9680   33.9130   55.4800 C.3     0  <0>0        0.0045
      4  C6         3.1030   35.1770   56.3790 C.3     0  <0>0        0.0078
      5  C7         2.0280   34.9150   57.4510 C.3     0  <0>0        0.0404
      6  C8         2.1940   35.7670   58.6880 C.3     0  <0>0        0.0038
      7  C9         3.6110   35.6700   59.2580 C.3     0  <0>0        0.0008
      8  C10        4.5890   36.1120   58.1680 C.3     0  <0>0        0.0078
      9  C11        4.5010   35.1330   56.9960 C.3     0  <0>0        0.0233
     10  C12        5.5560   35.3850   55.9660 C.2     0  <0>0       -0.0154
     11  C13        6.6800   36.0510   56.2210 C.2     0  <0>0        0.0495
     12  C14        6.9320   36.6000   57.5650 C.2     0  <0>0       -0.0097
     13  C15        7.9410   37.4750   57.7250 C.2     0  <0>0        0.0340
     14  C16        8.2120   38.1330   58.9330 C.2     0  <0>0        0.1724
     15  O2         9.1960   38.8370   59.0350 O.2     0  <0>0       -0.2914
     16  C17        7.2800   37.9630   60.1040 C.3     0  <0>0        0.0622
     17  C18        7.3420   36.6490   60.8830 C.3     0  <0>0        0.0084
     18  C19        6.1590   36.9390   59.9500 C.3     0  <0>0        0.0115
     19  C20        6.0200   36.1260   58.7020 C.3     0  <0>0        0.0205
     20  C21        6.3980   34.6850   59.0500 C.3     0  <0>0        0.0044
     21 Cl          7.8560   36.2730   54.9630 Cl      0  <0>0       -0.0829
     22  C22        0.6530   35.2040   56.8480 C.3     0  <0>0        0.0039
     23  C2         0.7580   32.8480   58.0270 C.2     0  <0>0        0.1869
     24  C1         0.1030   31.9350   57.0230 C.3     0  <0>0        0.0760
     25  O1         0.1860   33.1260   59.0540 O.2     0  <0>0       -0.2924
     26  O3         2.9860   33.1910   58.8720 O.3     0  <0>0       -0.4486
     27  C23        3.4730   31.9500   59.0300 C.2     0  <0>0        0.3177
     28  O4         2.8460   31.1300   59.6560 O.2     0  <0>0       -0.2501
     29  C24        4.8050   31.5820   58.4260 C.3     0  <0>0        0.1212
@<TRIPOS>BOND
     1    21    11    1
     2     3     4    1
     3     3     2    1
     4    10    11    2
     5    10     9    1
     6    11    12    1
     7     4     9    1
     8     4     5    1
     9     2     1    1
    10    22     5    1
    11     9     8    1
    12    24    23    1
    13     5     1    1
    14     5     6    1
    15    12    13    2
    16    12    19    1
    17    13    14    1
    18     1    23    1
    19     1    26    1
    20    23    25    2
    21     8    19    1
    22     8     7    1
    23    29    27    1
    24     6     7    1
    25    19    20    1
    26    19    18    1
    27    26    27    1
    28    14    15    2
    29    14    16    1
    30    27    28    2
    31    18    16    1
    32    18    17    1
    33    16    17    1
