@<TRIPOS>MOLECULE
ZINC27794281_replica-1.pdb
 35 39 0 0 0
SMALL
GASTEIGER

@<TRIPOS>ATOM
      1  C12        5.4030   34.8200   59.5290 C.3     0  <0>0        0.0656
      2  C11        5.9210   33.4540   59.9850 C.3     0  <0>0        0.0985
      3  N1         7.2060   33.6230   60.6710 N.am    0  <0>0       -0.2977
      4  C10        8.3050   32.9970   60.2060 C.2     0  <0>0        0.2803
      5  O2         8.2310   32.2920   59.2180 O.2     0  <0>0       -0.2668
      6  H9         7.2720   34.2610   61.5640 H       0  <0>0        0.1499
      7  C7         9.5920   33.1680   60.8940 C.ar    0  <0>0        0.1943
      8  C6        10.3630   34.2850   60.8430 C.ar    0  <0>0        0.0202
      9  C5        11.5380   34.0050   61.6670 C.ar    0  <0>0        0.0337
     10  C28       10.0670   35.5570   60.0900 C.3     0  <0>0        0.0345
     11  C4        12.6800   34.7320   62.0140 C.ar    0  <0>0        0.0025
     12  C8        11.3610   32.6950   62.1510 C.ar    0  <0>0        0.1449
     13  C3        13.6200   34.1670   62.8290 C.ar    0  <0>0       -0.0041
     14  C2        13.4470   32.8770   63.3140 C.ar    0  <0>0       -0.0188
     15  C1        14.4970   32.2730   64.2110 C.3     0  <0>0        0.0311
     16  C9        12.3280   32.1440   62.9830 C.ar    0  <0>0        0.0332
     17  O1        10.1890   32.2390   61.6700 O.2     0  <0>0       -0.4492
     18  C13        3.9860   34.6810   59.0380 C.ar    0  <0>0       -0.0165
     19  C18        3.2410   35.8090   58.7500 C.ar    0  <0>0       -0.0008
     20  C17        1.9410   35.6840   58.2990 C.ar    0  <0>0        0.0366
     21  C16        1.3830   34.4250   58.1350 C.ar    0  <0>0        0.1387
     22  C15        2.1310   33.2940   58.4260 C.ar    0  <0>0        0.0366
     23  C14        3.4330   33.4230   58.8710 C.ar    0  <0>0       -0.0008
     24  O3         0.1040   34.2990   57.6920 O.3     0  <0>0       -0.4714
     25  C19       -0.4180   32.9730   57.5870 C.3     0  <0>0        0.2525
     26  C20        6.2730   35.3390   58.4120 C.ar    0  <0>0        0.0016
     27  C23        6.9610   36.6320   58.3740 C.ar    0  <0>0        0.0134
     28  C22        7.6450   36.6710   57.1440 C.ar    0  <0>0        0.0563
     29  C24        7.0470   37.7120   59.2530 C.ar    0  <0>0        0.0012
     30  N2         7.3820   35.4850   56.4960 N.ar    0  <0>0       -0.3522
     31  C27        8.4000   37.7930   56.8200 C.ar    0  <0>0        0.0170
     32  C21        6.5690   34.7020   57.2690 C.ar    0  <0>0        0.0684
     33  H2         7.7210   35.1240   55.5130 H       0  <0>0        0.1660
     34  C26        8.4690   38.8490   57.7020 C.ar    0  <0>0        0.0015
     35  C25        7.7930   38.8050   58.9140 C.ar    0  <0>0        0.0001
@<TRIPOS>BOND
     1    33    30    1
     2    30    28   ar
     3    30    32   ar
     4    31    28   ar
     5    31    34   ar
     6    28    27   ar
     7    32    26   ar
     8    25    24    1
     9    24    21    1
    10    34    35   ar
    11    21    20   ar
    12    21    22   ar
    13    20    19   ar
    14    27    26   ar
    15    27    29   ar
    16    26     1    1
    17    22    23   ar
    18    19    18   ar
    19    23    18   ar
    20    35    29   ar
    21    18     1    1
    22     5     4    2
    23     1     2    1
    24     2     3    1
    25    10     8    1
    26     4     3   am
    27     4     7    1
    28     3     6    1
    29     8     7   ar
    30     8     9   ar
    31     7    17   ar
    32     9    11   ar
    33     9    12   ar
    34    17    12   ar
    35    11    13   ar
    36    12    16   ar
    37    13    14   ar
    38    16    14   ar
    39    14    15    1
