@<TRIPOS>MOLECULE
ZINC15550444_replica-1.pdb
 25 26 0 0 0
SMALL
GASTEIGER

@<TRIPOS>ATOM
      1  N2        -0.0980   29.6900   55.4050 N.3     0  <0>0       -0.2874
      2  H18        0.5840   28.9560   55.2850 H       0  <0>0        0.1239
      3  C9         0.5270   31.0140   55.2850 C.3     0  <0>0        0.1551
      4  C8         0.5410   31.6860   56.6330 C.2     0  <0>0        0.2386
      5  N1         1.3020   32.7820   56.8330 N.am    0  <0>0       -0.3048
      6  H15        1.8400   33.1370   56.1080 H       0  <0>0        0.1494
      7  O1        -0.1310   31.2430   57.5410 O.2     0  <0>0       -0.2736
      8  C7         1.3160   33.4350   58.1440 C.3     0  <0>0        0.0715
      9  C2         2.7420   33.8780   58.4770 C.3     0  <0>0        0.0180
     10  C1         3.6630   32.6560   58.5050 C.3     0  <0>0        0.0017
     11  C3         3.2340   34.8600   57.4110 C.3     0  <0>0        0.0016
     12  C4         2.3130   36.0830   57.3830 C.3     0  <0>0        0.0001
     13  C5         0.8880   35.6400   57.0490 C.3     0  <0>0        0.0017
     14  C6         0.3960   34.6570   58.1140 C.3     0  <0>0        0.0196
     15  C10       -1.2050   29.5410   54.4500 C.3     0  <0>0        0.0771
     16  C11       -0.9760   28.3150   53.6040 C.ar    0  <0>0       -0.0079
     17  C16       -1.5090   28.2480   52.3290 C.ar    0  <0>0       -0.0007
     18  C15       -1.2960   27.1250   51.5510 C.ar    0  <0>0        0.0294
     19  C14       -0.5590   26.0660   52.0520 C.ar    0  <0>0        0.1401
     20  C13       -0.0320   26.1330   53.3300 C.ar    0  <0>0        0.0294
     21  F1        -0.3550   24.9660   51.2930 F       0  <0>0       -0.2042
     22  C12       -0.2410   27.2580   54.1040 C.ar    0  <0>0       -0.0007
     23  C17       -2.5220   29.3970   55.2140 C.3     0  <0>0        0.0186
     24  C18       -2.2700   28.6560   56.5290 C.3     0  <0>0        0.0017
     25  C19       -3.0940   30.7830   55.5110 C.3     0  <0>0        0.0017
@<TRIPOS>BOND
     1    21    19    1
     2    18    19   ar
     3    18    17   ar
     4    19    20   ar
     5    17    16   ar
     6    20    22   ar
     7    16    22   ar
     8    16    15    1
     9    15    23    1
    10    15     1    1
    11    23    25    1
    12    23    24    1
    13     2     1    1
    14     3     1    1
    15     3     4    1
    16     6     5    1
    17     4     5   am
    18     4     7    2
    19     5     8    1
    20    13    12    1
    21    13    14    1
    22    12    11    1
    23    11     9    1
    24    14     8    1
    25     8     9    1
    26     9    10    1
