@<TRIPOS>MOLECULE
ZINC05736372_replica-1.pdb
 25 27 0 0 0
SMALL
GASTEIGER

@<TRIPOS>ATOM
      1  C12       -0.6920   30.9290   54.8890 C.2     0  <0>0        0.1923
      2  C13       -2.0710   30.5280   55.2200 C.2     0  <0>0        0.3738
      3  O1        -2.8750   31.1380   55.9000 O.2     0  <0>0       -0.2419
      4  O2        -2.2520   29.3390   54.6050 O.3     0  <0>0       -0.3911
      5  C14       -1.1190   29.0130   53.9540 C.2     0  <0>0        0.2848
      6  N2        -0.1980   29.9230   54.1120 N.2     0  <0>0       -0.3648
      7  C11       -0.0370   32.0780   55.2860 C.3     0  <0>0        0.0922
      8  C8         0.2650   32.2960   56.7010 C.ar    0  <0>0       -0.0148
      9  C7         0.4400   31.1990   57.5600 C.ar    0  <0>0       -0.0026
     10  C6         0.7210   31.4080   58.8800 C.ar    0  <0>0        0.0142
     11  C5         0.8350   32.7060   59.3740 C.ar    0  <0>0        0.0478
     12  C10        0.6620   33.7970   58.5260 C.ar    0  <0>0        0.0142
     13  C9         0.3870   33.6000   57.2020 C.ar    0  <0>0       -0.0026
     14  N1         1.1220   32.9120   60.7180 N.pl3   0  <0>0       -0.3075
     15  C2         2.4200   32.5020   61.2620 C.3     0  <0>0        0.0908
     16  C1         3.5330   33.3050   60.5840 C.3     0  <0>0        0.0232
     17  C3         0.1270   33.5390   61.5920 C.3     0  <0>0        0.0908
     18  C4        -0.1960   32.5970   62.7550 C.3     0  <0>0        0.0232
     19  C15       -0.9410   27.7780   53.1660 C.ar    0  <0>0        0.0727
     20  C20       -0.2550   26.6900   53.7110 C.ar    0  <0>0        0.0401
     21  C19       -0.0930   25.5380   52.9670 C.ar    0  <0>0        0.0069
     22 Br          0.4490   26.7940   55.4620 Br      0  <0>0       -0.0488
     23  C18       -0.6070   25.4610   51.6860 C.ar    0  <0>0        0.0005
     24  C17       -1.2870   26.5360   51.1390 C.ar    0  <0>0        0.0002
     25  C16       -1.4620   27.6890   51.8730 C.ar    0  <0>0        0.0063
@<TRIPOS>BOND
     1    24    23   ar
     2    24    25   ar
     3    23    21   ar
     4    25    19   ar
     5    21    20   ar
     6    19    20   ar
     7    19     5    1
     8    20    22    1
     9     5     6    2
    10     5     4    1
    11     6     1    2
    12     4     2    1
    13     1     2    1
    14     1     7    1
    15     2     3    2
    16     7     8    1
    17     8    13   ar
    18     8     9   ar
    19    13    12   ar
    20     9    10   ar
    21    12    11   ar
    22    10    11   ar
    23    11    14    1
    24    16    15    1
    25    14    15    1
    26    14    17    1
    27    17    18    1
