@<TRIPOS>MOLECULE
ZINC59678880_replica-1.pdb
 31 33 0 0 0
SMALL
GASTEIGER

@<TRIPOS>ATOM
      1  N1        -1.3250   29.7510   53.7920 N.2     0  <0>0       -0.2244
      2  C9        -0.9580   29.8720   55.0470 C.2     0  <0>0        0.1658
      3  N2        -1.0580   30.9740   55.8680 N.am    0  <0>0       -0.2602
      4  C10       -0.6350   30.9230   57.1200 C.2     0  <0>0        0.2570
      5  O1        -0.7180   31.8870   57.8580 O.2     0  <0>0       -0.2692
      6  C11       -0.0620   29.6450   57.5810 C.2     0  <0>0        0.0857
      7  C12        0.4420   29.3160   58.7970 C.2     0  <0>0        0.0112
      8  S1        -0.2130   28.6440   56.1080 S.3     0  <0>0       -0.0483
      9  H10       -1.4430   31.7940   55.5230 H       0  <0>0        0.1571
     10  C13        0.6280   30.3540   59.8210 C.ar    0  <0>0        0.0036
     11  C18        1.5940   31.3520   59.6410 C.ar    0  <0>0        0.0400
     12  C17        1.7580   32.3280   60.6040 C.ar    0  <0>0        0.1716
     13  C16        0.9740   32.3120   61.7570 C.ar    0  <0>0        0.1639
     14  C15        0.0200   31.3190   61.9380 C.ar    0  <0>0        0.0189
     15  C14       -0.1560   30.3450   60.9800 C.ar    0  <0>0       -0.0007
     16  O2         2.6910   33.3030   60.4310 O.3     0  <0>0       -0.4724
     17  C19        2.6370   34.0430   59.2090 C.3     0  <0>0        0.2057
     18  C20        1.5180   35.0840   59.2920 C.3     0  <0>0        0.0512
     19  O3         1.1430   33.2700   62.7050 O.3     0  <0>0       -0.5031
     20  H19        1.0690   32.9430   63.6120 H       0  <0>0        0.2923
     21  C21       -0.8240   31.3090   63.1860 C.3     0  <0>0        0.0555
     22  C22       -0.3950   30.1700   64.0730 C.2     0  <0>0       -0.0213
     23  C23       -1.2290   29.1950   64.3390 C.2     0  <0>0       -0.0046
     24  C6        -1.1490   28.5620   53.1380 C.ar    0  <0>0        0.0832
     25  C5        -1.7810   28.3330   51.9130 C.ar    0  <0>0        0.0188
     26  C4        -1.5980   27.1330   51.2600 C.ar    0  <0>0       -0.0027
     27  C3        -0.7910   26.1550   51.8150 C.ar    0  <0>0       -0.0221
     28  C8        -0.1660   26.3730   53.0300 C.ar    0  <0>0       -0.0027
     29  C7        -0.3360   27.5710   53.6920 C.ar    0  <0>0        0.0188
     30  C2        -0.5970   24.8460   51.0960 C.3     0  <0>0        0.0264
     31  C1        -0.3740   23.7290   52.1170 C.3     0  <0>0        0.0050
@<TRIPOS>BOND
     1    30    27    1
     2    30    31    1
     3    26    27   ar
     4    26    25   ar
     5    27    28   ar
     6    25    24   ar
     7    28    29   ar
     8    24    29   ar
     9    24     1    1
    10     1     2    2
    11     2     3    1
    12     2     8    1
    13     9     3    1
    14     3     4   am
    15     8     6    1
    16     4     6    1
    17     4     5    2
    18     6     7    2
    19     7    10    1
    20    17    18    1
    21    17    16    1
    22    11    10   ar
    23    11    12   ar
    24    10    15   ar
    25    16    12    1
    26    12    13   ar
    27    15    14   ar
    28    13    14   ar
    29    13    19    1
    30    14    21    1
    31    19    20    1
    32    21    22    1
    33    22    23    2
