@<TRIPOS>MOLECULE
ZINC54106892_replica-1.pdb
 20 21 0 0 0
SMALL
GASTEIGER

@<TRIPOS>ATOM
      1  C4        12.2810   34.1480   62.9020 C.ar    0  <0>0        0.1031
      2  C5        12.2920   35.3810   63.4420 C.ar    0  <0>0        0.0340
      3  C6        11.5260   36.2090   62.5970 C.ar    0  <0>0        0.0402
      4  C7        11.0860   35.4250   61.5760 C.ar    0  <0>0        0.1447
      5  O1        11.5580   34.1790   61.7710 O.2     0  <0>0       -0.4598
      6  C3        12.9740   32.9350   63.4690 C.3     0  <0>0       -0.0026
      7  C2        14.4450   32.9450   63.0510 C.3     0  <0>0       -0.0140
      8  C1        15.2890   33.5620   64.1680 C.3     0  <0>0       -0.0017
      9  N1        12.3280   31.7180   62.9560 N.4     0  <0>0        0.3897
     10  H16       11.3660   31.6960   63.2560 H       0  <0>0       -0.0838
     11  H22       12.3660   31.7180   61.9480 H       0  <0>0       -0.0838
     12  C15       13.0300   30.5360   63.4720 C.3     0  <0>0       -0.0811
     13  C16       12.0370   29.6330   64.2060 C.3     0  <0>0       -0.0255
     14  C8        10.2430   35.8670   60.4460 C.ar    0  <0>0        0.0345
     15  C13        9.6530   37.1310   60.4630 C.ar    0  <0>0        0.0027
     16  C12        8.8720   37.5390   59.4010 C.ar    0  <0>0       -0.0042
     17  C11        8.6630   36.6930   58.3270 C.ar    0  <0>0       -0.0218
     18  C10        9.2410   35.4360   58.3050 C.ar    0  <0>0       -0.0042
     19  C14        7.8050   37.1430   57.1730 C.3     0  <0>0        0.0310
     20  C9        10.0290   35.0180   59.3570 C.ar    0  <0>0        0.0027
@<TRIPOS>BOND
     1    19    17    1
     2    18    17   ar
     3    18    20   ar
     4    17    16   ar
     5    20    14   ar
     6    16    15   ar
     7    14    15   ar
     8    14     4    1
     9     4     5   ar
    10     4     3   ar
    11     5     1   ar
    12    11     9    1
    13     3     2   ar
    14     1     2   ar
    15     1     6    1
    16     9    10    1
    17     9     6    1
    18     9    12    1
    19     7     6    1
    20     7     8    1
    21    12    13    1
