@<TRIPOS>MOLECULE
ZINC07397711_replica-1.pdb
 25 26 0 0 0
SMALL
GASTEIGER

@<TRIPOS>ATOM
      1  C6         7.7940   37.8030   59.4480 C.3     0  <0>0        0.2415
      2  C7         7.6380   38.9570   58.4560 C.3     0  <0>0        0.0574
      3  C5         6.4530   37.1540   59.6780 C.2     0  <0>0        0.2678
      4  N3         6.1620   35.9810   59.0840 N.am    0  <0>0       -0.2598
      5  H7         6.8150   35.5520   58.5080 H       0  <0>0        0.1569
      6  O1         5.6360   37.6880   60.3980 O.2     0  <0>0       -0.2708
      7  C4         4.9230   35.3800   59.2960 C.ar    0  <0>0        0.1886
      8  N2         4.5750   34.4290   60.1470 N.ar    0  <0>0       -0.1248
      9  N1         3.3930   33.9950   60.2170 N.ar    0  <0>0       -0.1332
     10  C3         2.4260   34.4660   59.4430 C.ar    0  <0>0        0.1606
     11  S2         3.3460   35.6820   58.5030 S.2     0  <0>0       -0.0241
     12  S1         0.7220   34.0240   59.3600 S.3     0  <0>0       -0.0866
     13  C2         0.1020   34.3580   61.0320 C.3     0  <0>0        0.0642
     14  C1         0.1770   33.0780   61.8690 C.3     0  <0>0        0.0130
     15  O2         8.7050   36.8380   58.9170 O.3     0  <0>0       -0.4699
     16  C8         9.5680   36.2590   59.7930 C.ar    0  <0>0        0.1391
     17  C13        9.9630   36.9400   60.9350 C.ar    0  <0>0        0.0366
     18  C12       10.8400   36.3480   61.8220 C.ar    0  <0>0       -0.0012
     19  C11       11.3250   35.0780   61.5740 C.ar    0  <0>0       -0.0226
     20  C10       10.9340   34.3960   60.4360 C.ar    0  <0>0       -0.0012
     21  C9        10.0520   34.9810   59.5490 C.ar    0  <0>0        0.0366
     22  C14       12.2820   34.4350   62.5440 C.3     0  <0>0        0.0189
     23  C15       13.6510   34.2720   61.8780 C.3     0  <0>0        0.0044
     24  C16       12.4220   35.3190   63.7850 C.3     0  <0>0        0.0044
     25  C17       11.7480   33.0610   62.9530 C.3     0  <0>0        0.0044
@<TRIPOS>BOND
     1     2     1    1
     2    11     7   ar
     3    11    10   ar
     4     5     4    1
     5    15     1    1
     6    15    16    1
     7     4     7    1
     8     4     3   am
     9     7     8   ar
    10    12    10    1
    11    12    13    1
    12    10     9   ar
    13     1     3    1
    14    21    16   ar
    15    21    20   ar
    16     3     6    2
    17    16    17   ar
    18     8     9   ar
    19    20    19   ar
    20    17    18   ar
    21    13    14    1
    22    19    18   ar
    23    19    22    1
    24    23    22    1
    25    22    25    1
    26    22    24    1
