@<TRIPOS>MOLECULE
ZINC37408686_replica-1.pdb
 21 23 0 0 0
SMALL
GASTEIGER

@<TRIPOS>ATOM
      1  S1         6.9650   35.2230   55.9240 S.O2    0  <0>0        0.0641
      2  O1         6.8320   35.9910   54.7350 O.2     0  <0>0       -0.1527
      3  O2         7.1630   33.8160   55.9020 O.2     0  <0>0       -0.1527
      4  N1         8.2390   35.8670   56.7630 N.3     0  <0>0       -0.1507
      5  C8         8.5130   37.3140   56.7470 C.3     0  <0>0        0.1008
      6  C7         8.3300   37.8430   58.1690 C.3     0  <0>0        0.0452
      7  C5         9.0430   36.9660   59.1630 C.ar    0  <0>0       -0.0233
      8  C4         9.4010   35.6650   58.8900 C.ar    0  <0>0       -0.0084
      9  C6         9.3300   37.5070   60.4110 C.ar    0  <0>0       -0.0045
     10  C3        10.0310   34.9030   59.8640 C.ar    0  <0>0       -0.0032
     11  C9         9.1390   35.0200   57.5530 C.3     0  <0>0        0.1218
     12  C2        10.3080   35.4400   61.1040 C.ar    0  <0>0       -0.0003
     13  C1         9.9580   36.7500   61.3760 C.ar    0  <0>0       -0.0003
     14  C10        5.5130   35.5130   56.8780 C.ar    0  <0>0        0.1285
     15  C15        4.2650   35.3760   56.2970 C.ar    0  <0>0        0.0554
     16  C14        3.1240   35.6000   57.0460 C.ar    0  <0>0        0.0377
     17 Br          4.1180   34.8740   54.4800 Br      0  <0>0       -0.0475
     18  C13        3.2320   35.9720   58.3750 C.ar    0  <0>0        0.1407
     19  C12        4.4830   36.1140   58.9540 C.ar    0  <0>0        0.0310
     20  F1         2.1190   36.1940   59.1080 F       0  <0>0       -0.2042
     21  C11        5.6210   35.8850   58.2050 C.ar    0  <0>0        0.0227
@<TRIPOS>BOND
     1    17    15    1
     2     2     1    2
     3     3     1    2
     4     1     4    1
     5     1    14    1
     6    15    14   ar
     7    15    16   ar
     8     5     4    1
     9     5     6    1
    10     4    11    1
    11    14    21   ar
    12    16    18   ar
    13    11     8    1
    14     6     7    1
    15    21    19   ar
    16    18    19   ar
    17    18    20    1
    18     8     7   ar
    19     8    10   ar
    20     7     9   ar
    21    10    12   ar
    22     9    13   ar
    23    12    13   ar
