@<TRIPOS>MOLECULE
ZINC21220064_replica-1.pdb
 37 41 0 0 0
SMALL
GASTEIGER

@<TRIPOS>ATOM
      1  C10        0.5720   30.9870   56.0520 C.3     0  <0>0        0.0356
      2  C11        0.2750   32.4760   55.8810 C.3     0  <0>0        0.0458
      3  C12        0.9680   33.2710   56.9760 C.2     0  <0>0        0.0262
      4  C13        1.1460   32.7370   58.1960 C.2     0  <0>0        0.0436
      5  C14        1.8160   33.4130   59.3690 C.3     0  <0>0        0.1186
      6  N1         2.0490   34.8310   59.1920 N.pl3   0  <0>0       -0.3262
      7  C15        2.9230   35.2980   58.2120 C.ar    0  <0>0        0.0586
      8  C16        4.1210   35.9120   58.5430 C.ar    0  <0>0        0.0156
      9  C17        5.0070   36.2590   57.5390 C.ar    0  <0>0        0.0013
     10  C18        4.7040   35.9970   56.2150 C.ar    0  <0>0        0.0014
     11  C19        3.4990   35.4040   55.8790 C.ar    0  <0>0        0.0158
     12  C20        2.6030   35.0730   56.8820 C.ar    0  <0>0        0.0614
     13  N2         1.3560   34.5190   56.6120 N.pl3   0  <0>0       -0.3150
     14  C29        0.7010   31.4220   58.4720 C.2     0  <0>0        0.1722
     15  O2         0.8520   30.9750   59.5910 O.2     0  <0>0       -0.2916
     16  C30        0.0500   30.5620   57.4300 C.3     0  <0>0        0.0736
     17  H16        1.5340   35.5580   59.8370 H       0  <0>0        0.1474
     18  H21        0.6640   35.1720   56.0620 H       0  <0>0        0.1520
     19  C7        -0.1290   30.2000   54.9740 C.ar    0  <0>0       -0.0215
     20  C6         0.2820   28.9130   54.6810 C.ar    0  <0>0       -0.0011
     21  C5        -0.3600   28.1900   53.6930 C.ar    0  <0>0        0.0366
     22  C4        -1.4180   28.7560   52.9970 C.ar    0  <0>0        0.1385
     23  C9        -1.8290   30.0480   53.2940 C.ar    0  <0>0        0.0366
     24  C8        -1.1880   30.7650   54.2860 C.ar    0  <0>0       -0.0011
     25  O1        -2.0500   28.0460   52.0260 O.3     0  <0>0       -0.4755
     26  C3        -1.2260   27.3290   51.1060 C.3     0  <0>0        0.2054
     27  C2        -1.5950   25.8440   51.1400 C.3     0  <0>0        0.0473
     28  C1        -0.5070   25.0650   51.8840 C.3     0  <0>0        0.0040
     29  C21        3.1400   32.7390   59.6180 C.ar    0  <0>0       -0.0002
     30  C26        3.6800   32.7260   60.8910 C.ar    0  <0>0       -0.0011
     31  C25        4.8940   32.1090   61.1230 C.ar    0  <0>0        0.0143
     32  C24        5.5710   31.4990   60.0750 C.ar    0  <0>0        0.0479
     33  C23        5.0260   31.5130   58.7970 C.ar    0  <0>0        0.0143
     34  C22        3.8100   32.1270   58.5740 C.ar    0  <0>0       -0.0011
     35  N3         6.7990   30.8740   60.3050 N.pl3   0  <0>0       -0.3041
     36  C27        7.1090   30.3340   61.6310 C.3     0  <0>0        0.1122
     37  C28        7.7770   30.7580   59.2200 C.3     0  <0>0        0.1122
@<TRIPOS>BOND
     1    26    27    1
     2    26    25    1
     3    27    28    1
     4    25    22    1
     5    22    23   ar
     6    22    21   ar
     7    23    24   ar
     8    21    20   ar
     9    24    19   ar
    10    20    19   ar
    11    19     1    1
    12    11    10   ar
    13    11    12   ar
    14     2     1    1
    15     2     3    1
    16     1    16    1
    17    18    13    1
    18    10     9   ar
    19    13    12    1
    20    13     3    1
    21    12     7   ar
    22     3     4    2
    23    16    14    1
    24     9     8   ar
    25     4    14    1
    26     4     5    1
    27     7     8   ar
    28     7     6    1
    29    14    15    2
    30    34    33   ar
    31    34    29   ar
    32    33    32   ar
    33     6     5    1
    34     6    17    1
    35    37    35    1
    36     5    29    1
    37    29    30   ar
    38    32    35    1
    39    32    31   ar
    40    35    36    1
    41    30    31   ar
