@<TRIPOS>MOLECULE
ZINC02562034_replica-1.pdb
 29 31 0 0 0
SMALL
GASTEIGER

@<TRIPOS>ATOM
      1  C11        7.1930   35.9140   57.1870 C.3     0  <0>0        0.1347
      2  C10        7.3250   34.4300   57.4180 C.ar    0  <0>0        0.0070
      3  C7         6.9300   33.6970   58.6230 C.ar    0  <0>0        0.0133
      4  C6         6.3580   34.0690   59.8410 C.ar    0  <0>0        0.0012
      5  C8         7.2420   32.3470   58.3770 C.ar    0  <0>0        0.0523
      6  C5         6.1050   33.1180   60.7900 C.ar    0  <0>0       -0.0002
      7  C4         6.4110   31.7860   60.5520 C.ar    0  <0>0       -0.0028
      8  C3         6.9750   31.3960   59.3560 C.ar    0  <0>0       -0.0066
      9  N1         7.7800   32.2790   57.1110 N.ar    0  <0>0       -0.3525
     10  H1         8.0830   31.4660   56.6770 H       0  <0>0        0.1660
     11  C9         7.8270   33.5290   56.5580 C.ar    0  <0>0        0.0686
     12  C2         7.3030   29.9460   59.1110 C.3     0  <0>0        0.0278
     13  C1         6.0640   29.2260   58.5740 C.3     0  <0>0        0.0051
     14  C12        8.5420   36.5910   57.4400 C.3     0  <0>0        0.0848
     15  C13        8.6200   37.0310   58.8800 C.2     0  <0>0        0.1739
     16  O1         7.9240   37.9420   59.2740 O.2     0  <0>0       -0.2913
     17  C14        9.5410   36.3530   59.8060 C.ar    0  <0>0        0.0347
     18  C19        9.9030   36.9660   61.0100 C.ar    0  <0>0        0.0025
     19  C18       10.7660   36.3260   61.8730 C.ar    0  <0>0       -0.0042
     20  C17       11.2750   35.0790   61.5500 C.ar    0  <0>0       -0.0228
     21  C16       10.9220   34.4670   60.3600 C.ar    0  <0>0       -0.0042
     22  C15       10.0550   35.0930   59.4900 C.ar    0  <0>0        0.0025
     23  C20       12.2180   34.3860   62.5000 C.3     0  <0>0        0.0189
     24  C21       12.3680   35.2220   63.7720 C.3     0  <0>0        0.0044
     25  C22       11.6600   33.0080   62.8580 C.3     0  <0>0        0.0044
     26  C23       13.5860   34.2240   61.8330 C.3     0  <0>0        0.0044
     27  C24        6.7640   36.1640   55.7640 C.2     0  <0>0        0.3688
     28  O2         5.6050   36.0340   55.4510 O.co2   0  <0>0       -0.2453
     29  O3         7.6710   36.5300   54.8450 O.co2   0  <0>0       -0.2453
@<TRIPOS>BOND
     1    29    27   ar
     2    28    27   ar
     3    27     1    1
     4    11     9   ar
     5    11     2   ar
     6    10     9    1
     7     9     5   ar
     8     1     2    1
     9     1    14    1
    10     2     3   ar
    11    14    15    1
    12     5     3   ar
    13     5     8   ar
    14    13    12    1
    15     3     4   ar
    16    15    16    2
    17    15    17    1
    18    12     8    1
    19     8     7   ar
    20    22    17   ar
    21    22    21   ar
    22    17    18   ar
    23     4     6   ar
    24    21    20   ar
    25     7     6   ar
    26    18    19   ar
    27    20    19   ar
    28    20    23    1
    29    26    23    1
    30    23    25    1
    31    23    24    1
