@<TRIPOS>MOLECULE
ZINC06365115_replica-1.pdb
 26 27 0 0 0
SMALL
GASTEIGER

@<TRIPOS>ATOM
      1  N1         5.6480   36.2670   58.6280 N.am    0  <0>0       -0.2837
      2  C10        6.4590   35.7630   57.6770 C.2     0  <0>0        0.2297
      3  O1         6.1180   34.7830   57.0480 O.2     0  <0>0       -0.2744
      4  H13        5.8980   37.0790   59.0980 H       0  <0>0        0.1549
      5  C11        7.7870   36.4160   57.3950 C.3     0  <0>0        0.0990
      6  C12        8.7020   36.2230   58.5760 C.ar    0  <0>0       -0.0138
      7  C17        8.7320   37.1650   59.5870 C.ar    0  <0>0       -0.0021
      8  C16        9.5710   36.9880   60.6720 C.ar    0  <0>0        0.0238
      9  C15       10.3800   35.8690   60.7450 C.ar    0  <0>0        0.1429
     10  C14       10.3500   34.9270   59.7340 C.ar    0  <0>0        0.0238
     11  C13        9.5070   35.1020   58.6520 C.ar    0  <0>0       -0.0021
     12  N2        11.2780   35.6800   61.9070 N.pl3   0  <0>0        0.0577
     13  O2        11.7880   34.5940   62.1110 O.2     0  <0>0       -0.1261
     14  O3        11.5050   36.6120   62.6580 O.2     0  <0>0       -0.1261
     15  C18        7.5780   37.9110   57.1500 C.3     0  <0>0        0.0127
     16  C19        8.9370   38.6140   57.0970 C.3     0  <0>0        0.0008
     17  C20        6.8470   38.1140   55.8210 C.3     0  <0>0        0.0008
     18  C7         4.4470   35.6200   58.9400 C.ar    0  <0>0        0.0503
     19  C6         3.2570   36.0520   58.3700 C.ar    0  <0>0        0.0143
     20  C5         2.0730   35.4070   58.6740 C.ar    0  <0>0       -0.0030
     21  C4         2.0720   34.3420   59.5550 C.ar    0  <0>0       -0.0224
     22  C9         3.2560   33.9090   60.1240 C.ar    0  <0>0       -0.0030
     23  C8         4.4430   34.5450   59.8190 C.ar    0  <0>0        0.0143
     24  C2         0.7780   33.6440   59.8900 C.3     0  <0>0        0.0224
     25  C1         0.6600   33.4890   61.4080 C.3     0  <0>0        0.0047
     26  C3         0.7600   32.2630   59.2330 C.3     0  <0>0        0.0047
@<TRIPOS>BOND
     1    17    15    1
     2     3     2    2
     3    16    15    1
     4    15     5    1
     5     5     2    1
     6     5     6    1
     7     2     1   am
     8    19    20   ar
     9    19    18   ar
    10     6    11   ar
    11     6     7   ar
    12     1    18    1
    13     1     4    1
    14    11    10   ar
    15    20    21   ar
    16    18    23   ar
    17    26    24    1
    18    21    24    1
    19    21    22   ar
    20     7     8   ar
    21    10     9   ar
    22    23    22   ar
    23    24    25    1
    24     8     9   ar
    25     9    12    1
    26    12    13    2
    27    12    14    2
