@<TRIPOS>MOLECULE
ZINC01704272_replica-1.pdb
 30 31 0 0 0
SMALL
GASTEIGER

@<TRIPOS>ATOM
      1  C10        8.3840   33.8130   59.5910 C.2     0  <0>0        0.3042
      2  C11        7.3350   34.2110   58.7400 C.3     0  <0>0        0.1773
      3  C12        6.8790   33.2970   57.7910 C.2     0  <0>0        0.1304
      4  N2         7.4440   32.1000   57.7260 N.2     0  <0>0       -0.2106
      5  C13        8.4240   31.7640   58.5420 C.3     0  <0>0        0.3920
      6  N3         8.8940   32.5940   59.4520 N.2     0  <0>0       -0.0405
      7 Cl          5.5890   33.7210   56.7080 Cl      0  <0>0       -0.0655
      8  N1         8.8770   34.6780   60.5520 N.pl3   0  <0>0       -0.2256
      9  H21        8.3450   34.8870   61.3350 H       0  <0>0        0.2918
     10  C8        10.2020   35.2790   60.3850 C.3     0  <0>0        0.1564
     11  C9        10.2080   36.6800   61.0000 C.3     0  <0>0        0.0505
     12  C7        11.2480   34.4110   61.0870 C.3     0  <0>0        0.0442
     13  C6        11.8450   35.1820   62.2660 C.3     0  <0>0       -0.0187
     14  C5        12.3680   34.1940   63.3100 C.3     0  <0>0       -0.0772
     15  N4        13.3440   33.2900   62.6650 N.4     0  <0>0        0.3869
     16  H34       13.0710   33.1490   61.6850 H       0  <0>0       -0.0797
     17  C2        14.6920   33.8940   62.7040 C.3     0  <0>0       -0.0774
     18  C1        15.3430   33.6670   64.0700 C.3     0  <0>0       -0.0250
     19  C3        13.3550   31.9830   63.3540 C.3     0  <0>0       -0.0774
     20  C4        11.9390   31.4050   63.3380 C.3     0  <0>0       -0.0250
     21  C14        6.7340   35.5600   58.8500 C.2     0  <0>0       -0.0124
     22  C15        5.7610   35.7900   59.7410 C.2     0  <0>0       -0.0466
     23  C16        5.1510   37.1640   59.8530 C.3     0  <0>0        0.0261
     24  C17        5.2760   34.6750   60.6320 C.3     0  <0>0        0.0261
     25  C18        7.2110   36.6570   57.9740 C.ar    0  <0>0       -0.0036
     26  C23        6.6890   36.8040   56.6900 C.ar    0  <0>0       -0.0003
     27  C22        7.1330   37.8280   55.8780 C.ar    0  <0>0       -0.0000
     28  C21        8.0980   38.7080   56.3370 C.ar    0  <0>0       -0.0000
     29  C20        8.6190   38.5680   57.6100 C.ar    0  <0>0       -0.0000
     30  C19        8.1770   37.5510   58.4320 C.ar    0  <0>0       -0.0003
@<TRIPOS>BOND
     1    27    28   ar
     2    27    26   ar
     3    28    29   ar
     4    26    25   ar
     5     7     3    1
     6    29    30   ar
     7     4     3    2
     8     4     5    1
     9     3     2    1
    10    25    30   ar
    11    25    21    1
    12     5     6    1
    13     2    21    1
    14     2     1    1
    15    21    22    2
    16     6     1    2
    17     1     8    1
    18    22    23    1
    19    22    24    1
    20    10     8    1
    21    10    11    1
    22    10    12    1
    23     8     9    1
    24    12    13    1
    25    16    15    1
    26    13    14    1
    27    15    17    1
    28    15    14    1
    29    15    19    1
    30    17    18    1
    31    20    19    1
