@<TRIPOS>MOLECULE
ZINC62065464_replica-1.pdb
 27 28 0 0 0
SMALL
GASTEIGER

@<TRIPOS>ATOM
      1  S1         7.4300   36.4580   56.2320 S.O2    0  <0>0        0.0735
      2  O1         6.6020   37.4720   56.7840 O.2     0  <0>0       -0.1528
      3  O2         7.8280   36.5110   54.8680 O.2     0  <0>0       -0.1528
      4  C12        8.8730   36.1820   57.2940 C.3     0  <0>0        0.1790
      5  C11        8.6210   36.8020   58.6690 C.3     0  <0>0        0.0537
      6  C8         9.5580   36.1870   59.6770 C.ar    0  <0>0       -0.0204
      7  C7        10.0660   34.9190   59.4650 C.ar    0  <0>0       -0.0045
      8  C6        10.9270   34.3560   60.3890 C.ar    0  <0>0       -0.0046
      9  C5        11.2800   35.0600   61.5230 C.ar    0  <0>0       -0.0228
     10  C10       10.7690   36.3270   61.7380 C.ar    0  <0>0       -0.0046
     11  C9         9.9110   36.8920   60.8120 C.ar    0  <0>0       -0.0045
     12  C2        12.2180   34.4470   62.5300 C.3     0  <0>0        0.0189
     13  C1        13.6110   34.3100   61.9120 C.3     0  <0>0        0.0044
     14  C3        11.7010   33.0640   62.9340 C.3     0  <0>0        0.0044
     15  C4        12.2950   35.3430   63.7680 C.3     0  <0>0        0.0044
     16  N1         6.5360   35.0690   56.3570 N.pl3   0  <0>0       -0.1005
     17  C13        6.9500   34.0500   57.2050 C.ar    0  <0>0        0.0950
     18  C18        6.3510   33.8930   58.4640 C.ar    0  <0>0        0.0700
     19  C17        6.7740   32.8600   59.3050 C.ar    0  <0>0        0.0059
     20  C16        7.7810   32.0120   58.8990 C.ar    0  <0>0        0.0002
     21  C15        8.3750   32.1730   57.6570 C.ar    0  <0>0        0.0014
     22  C14        7.9640   33.1850   56.8130 C.ar    0  <0>0        0.0182
     23  C19        5.2780   34.8080   58.8950 C.2     0  <0>0        0.2472
     24  O3         5.5030   35.6550   59.7370 O.2     0  <0>0       -0.2701
     25  N2         4.0480   34.7050   58.3540 N.am    0  <0>0       -0.2991
     26  C20        2.9820   35.6140   58.7830 C.3     0  <0>0        0.1109
     27  H22        3.8680   34.0290   57.6820 H       0  <0>0        0.1498
@<TRIPOS>BOND
     1     3     1    2
     2     1    16    1
     3     1     2    2
     4     1     4    1
     5    16    17    1
     6    22    17   ar
     7    22    21   ar
     8    17    18   ar
     9     4     5    1
    10    21    20   ar
    11    27    25    1
    12    25    26    1
    13    25    23   am
    14    18    23    1
    15    18    19   ar
    16     5     6    1
    17    23    24    2
    18    20    19   ar
    19     7     6   ar
    20     7     8   ar
    21     6    11   ar
    22     8     9   ar
    23    11    10   ar
    24     9    10   ar
    25     9    12    1
    26    13    12    1
    27    12    14    1
    28    12    15    1
