@<TRIPOS>MOLECULE
ZINC41706053_replica-1.pdb
 20 22 0 0 0
SMALL
GASTEIGER

@<TRIPOS>ATOM
      1  C1         8.8440   38.6000   56.9160 C.3     0  <0>0        0.0504
      2  C2         7.7330   37.5880   57.0130 C.ar    0  <0>0        0.0429
      3  C3         6.6730   37.5100   56.1830 C.ar    0  <0>0        0.0171
      4  C4         5.8740   36.3940   56.6560 C.ar    0  <0>0        0.0478
      5  C5         6.5300   35.8720   57.7650 C.ar    0  <0>0        0.0451
      6  N1         7.6410   36.5950   57.9560 N.ar    0  <0>0       -0.2990
      7  C11        6.0030   34.6950   58.5460 C.3     0  <0>0        0.0447
      8  C12        4.5050   34.5370   58.2730 C.3     0  <0>0        0.0128
      9  C13        4.2310   34.4830   56.7660 C.3     0  <0>0        0.0695
     10  C14        4.6170   35.8250   56.1600 C.2     0  <0>0        0.1742
     11  O1         3.9330   36.3820   55.3260 O.2     0  <0>0       -0.2913
     12  C15        4.0080   33.2450   58.9220 C.3     0  <0>0        0.0008
     13  C16        3.7540   35.7250   58.8780 C.3     0  <0>0        0.0008
     14  C6         8.5740   36.3740   58.9740 C.ar    0  <0>0        0.1472
     15  N2         8.5730   37.1530   60.0430 N.ar    0  <0>0       -0.2259
     16  C10        9.4320   36.9760   61.0280 C.ar    0  <0>0        0.1072
     17  C9        10.3750   35.9680   60.9730 C.ar    0  <0>0        0.0538
     18  C8        10.4110   35.1300   59.8660 C.ar    0  <0>0        0.0114
     19 Br         11.6040   35.7290   62.3910 Br      0  <0>0       -0.0474
     20  C7         9.4930   35.3390   58.8510 C.ar    0  <0>0        0.0379
@<TRIPOS>BOND
     1    11    10    2
     2    10     4    1
     3    10     9    1
     4     3     4   ar
     5     3     2   ar
     6     4     5   ar
     7     9     8    1
     8     1     2    1
     9     2     6   ar
    10     5     6   ar
    11     5     7    1
    12     6    14    1
    13     8     7    1
    14     8    13    1
    15     8    12    1
    16    20    14   ar
    17    20    18   ar
    18    14    15   ar
    19    18    17   ar
    20    15    16   ar
    21    17    16   ar
    22    17    19    1
