@<TRIPOS>MOLECULE
ZINC59279225_replica-1.pdb
 27 29 0 0 0
SMALL
GASTEIGER

@<TRIPOS>ATOM
      1  N1        -0.0740   31.2900   57.4740 N.am    0  <0>0       -0.2846
      2  C9        -0.0440   31.0410   56.1500 C.2     0  <0>0        0.3045
      3  O2         0.9440   31.3240   55.5020 O.2     0  <0>0       -0.2526
      4  N2        -1.1090   30.4800   55.5460 N.am    0  <0>0       -0.2569
      5  H11       -0.8630   31.0640   57.9920 H       0  <0>0        0.1513
      6  C10       -2.3010   30.1390   56.3280 C.3     0  <0>0        0.1594
      7  C11       -1.9730   29.0180   57.2790 C.ar    0  <0>0        0.1431
      8  O3        -1.5420   29.1600   58.5430 O.2     0  <0>0       -0.4530
      9  C14       -1.3560   27.9480   59.0920 C.ar    0  <0>0        0.1792
     10  C13       -1.6600   27.0140   58.1730 C.ar    0  <0>0        0.0435
     11  C12       -2.0590   27.7030   57.0040 C.ar    0  <0>0        0.0379
     12  C15       -1.0760   30.2090   54.1060 C.3     0  <0>0        0.0957
     13  C16       -1.0410   28.6980   53.8710 C.3     0  <0>0        0.0246
     14  C21       -1.3540   28.3970   52.4040 C.3     0  <0>0        0.0274
     15  C20       -1.0610   26.9560   52.0990 C.2     0  <0>0       -0.0306
     16  C19       -0.3330   26.1890   52.8460 C.2     0  <0>0       -0.0307
     17  C18        0.3150   26.6300   54.1250 C.3     0  <0>0        0.0258
     18  C17        0.3580   28.1580   54.1940 C.3     0  <0>0        0.0067
     19  C8         1.0840   31.9000   58.1320 C.3     0  <0>0        0.1207
     20  C7         0.6920   32.3620   59.5110 C.ar    0  <0>0        0.0315
     21  C2         0.4600   33.7090   59.7530 C.ar    0  <0>0        0.1363
     22  C3         0.0940   34.1310   61.0220 C.ar    0  <0>0        0.0366
     23  C4        -0.0330   33.2110   62.0450 C.ar    0  <0>0        0.0031
     24  C5         0.2050   31.8700   61.8040 C.ar    0  <0>0       -0.0001
     25  C6         0.5690   31.4470   60.5400 C.ar    0  <0>0        0.0004
     26  O1         0.5850   34.6110   58.7440 O.3     0  <0>0       -0.4717
     27  C1         1.5430   35.6560   58.9250 C.3     0  <0>0        0.2525
@<TRIPOS>BOND
     1    15    14    1
     2    15    16    2
     3    14    13    1
     4    16    17    1
     5    13    12    1
     6    13    18    1
     7    12     4    1
     8    17    18    1
     9     3     2    2
    10     4     2   am
    11     4     6    1
    12     2     1   am
    13     6     7    1
    14    11     7   ar
    15    11    10   ar
    16     7     8   ar
    17     1     5    1
    18     1    19    1
    19    19    20    1
    20    10     9   ar
    21     8     9   ar
    22    26    27    1
    23    26    21    1
    24    20    21   ar
    25    20    25   ar
    26    21    22   ar
    27    25    24   ar
    28    22    23   ar
    29    24    23   ar
