@<TRIPOS>MOLECULE
ZINC57434982_replica-1.pdb
 24 25 0 0 0
SMALL
GASTEIGER

@<TRIPOS>ATOM
      1  N1         8.7990   37.1310   59.1320 N.am    0  <0>0       -0.2957
      2  H14        8.8990   38.0890   59.0140 H       0  <0>0        0.1539
      3  C8         9.6650   36.4360   59.9830 C.ar    0  <0>0        0.0495
      4  C7        10.0670   37.0060   61.1830 C.ar    0  <0>0        0.0143
      5  C6        10.9220   36.3170   62.0210 C.ar    0  <0>0       -0.0030
      6  C5        11.3770   35.0610   61.6640 C.ar    0  <0>0       -0.0227
      7  C10       10.9830   34.4930   60.4670 C.ar    0  <0>0       -0.0030
      8  C9        10.1240   35.1750   59.6280 C.ar    0  <0>0        0.0143
      9  C2        12.3100   34.3110   62.5810 C.3     0  <0>0        0.0189
     10  C1        12.4950   35.1030   63.8770 C.3     0  <0>0        0.0044
     11  C3        13.6650   34.1310   61.8950 C.3     0  <0>0        0.0044
     12  C4        11.7150   32.9380   62.9040 C.3     0  <0>0        0.0044
     13  C11        7.8240   36.4700   58.4770 C.2     0  <0>0        0.1389
     14  S1         6.5410   35.7490   59.3520 S.2     0  <0>0       -0.0182
     15  N2         7.8580   36.3780   57.1330 N.am    0  <0>0       -0.2939
     16  H15        8.6120   36.7390   56.6400 H       0  <0>0        0.1539
     17  C12        6.8050   35.7610   56.4450 C.ar    0  <0>0        0.0775
     18  C17        6.9220   34.4380   56.0320 C.ar    0  <0>0        0.1557
     19  C16        5.8790   33.8310   55.3580 C.ar    0  <0>0        0.0605
     20  F1         8.0530   33.7470   56.2920 F       0  <0>0       -0.2028
     21  C15        4.7220   34.5410   55.0860 C.ar    0  <0>0        0.1425
     22  C14        4.6050   35.8610   55.4930 C.ar    0  <0>0        0.0311
     23  F2         3.7050   33.9480   54.4240 F       0  <0>0       -0.2041
     24  C13        5.6430   36.4710   56.1710 C.ar    0  <0>0        0.0192
@<TRIPOS>BOND
     1    23    21    1
     2    21    19   ar
     3    21    22   ar
     4    19    18   ar
     5    22    24   ar
     6    18    20    1
     7    18    17   ar
     8    24    17   ar
     9    17    15    1
    10    16    15    1
    11    15    13    1
    12    13     1    1
    13    13    14    2
    14     2     1    1
    15     1     3    1
    16     8     3   ar
    17     8     7   ar
    18     3     4   ar
    19     7     6   ar
    20     4     5   ar
    21     6     5   ar
    22     6     9    1
    23    11     9    1
    24     9    12    1
    25     9    10    1
