@<TRIPOS>MOLECULE
ZINC46651384_replica-1.pdb
 31 32 0 0 0
SMALL
GASTEIGER

@<TRIPOS>ATOM
      1  C3         0.5780   32.4790   58.5490 C.ar    0  <0>0       -0.0032
      2  C4         1.1480   31.5760   59.4270 C.ar    0  <0>0       -0.0026
      3  C5         0.9400   30.2190   59.2590 C.ar    0  <0>0        0.0010
      4  C6         0.1630   29.7620   58.2120 C.ar    0  <0>0        0.0147
      5  C7        -0.4100   30.6670   57.3280 C.ar    0  <0>0        0.0500
      6  C8        -0.2040   32.0290   57.5030 C.ar    0  <0>0        0.0120
      7  C2         0.8050   33.9570   58.7370 C.3     0  <0>0        0.0956
      8  C1         0.5810   34.3260   60.2050 C.3     0  <0>0        0.0262
      9  N2         2.1790   34.2920   58.3540 N.am    0  <0>0       -0.2866
     10  C17        2.4140   34.9770   57.2160 C.2     0  <0>0        0.3046
     11  O2         1.4860   35.3140   56.5080 O.2     0  <0>0       -0.2526
     12  N3         3.6770   35.2840   56.8640 N.am    0  <0>0       -0.2560
     13  H16        2.9200   34.0230   58.9190 H       0  <0>0        0.1512
     14  C18        4.7960   34.8770   57.7190 C.3     0  <0>0        0.1217
     15  C19        5.5300   36.1000   58.2020 C.2     0  <0>0       -0.0046
     16  C20        5.3480   36.5350   59.4240 C.2     0  <0>0       -0.0031
     17  C21        3.9330   36.0280   55.6280 C.3     0  <0>0        0.1217
     18  C22        4.0780   35.0630   54.4800 C.2     0  <0>0       -0.0046
     19  C23        5.2450   34.5280   54.2170 C.2     0  <0>0       -0.0031
     20  N1        -1.1970   30.2070   56.2660 N.am    0  <0>0       -0.2836
     21  C9        -0.6650   30.0920   55.0330 C.2     0  <0>0        0.2306
     22  O1         0.5200   30.2950   54.8630 O.2     0  <0>0       -0.2744
     23  H9        -2.1250   29.9710   56.4180 H       0  <0>0        0.1549
     24  C10       -1.5400   29.7120   53.8670 C.3     0  <0>0        0.1139
     25  C11       -1.1180   28.3630   53.3420 C.ar    0  <0>0        0.0144
     26  C16       -1.5120   27.9590   52.0780 C.ar    0  <0>0        0.1366
     27  C15       -1.1180   26.7220   51.5940 C.ar    0  <0>0        0.0293
     28  F1        -2.2740   28.7720   51.3140 F       0  <0>0       -0.2045
     29  C14       -0.3430   25.8900   52.3770 C.ar    0  <0>0        0.0023
     30  C13        0.0460   26.2930   53.6420 C.ar    0  <0>0       -0.0002
     31  C12       -0.3420   27.5290   54.1240 C.ar    0  <0>0       -0.0016
@<TRIPOS>BOND
     1    28    26    1
     2    27    26   ar
     3    27    29   ar
     4    26    25   ar
     5    29    30   ar
     6    25    24    1
     7    25    31   ar
     8    30    31   ar
     9    24    21    1
    10    19    18    2
    11    18    17    1
    12    22    21    2
    13    21    20   am
    14    17    12    1
    15    20    23    1
    16    20     5    1
    17    11    10    2
    18    12    10   am
    19    12    14    1
    20    10     9   am
    21     5     6   ar
    22     5     4   ar
    23     6     1   ar
    24    14    15    1
    25    15    16    2
    26     4     3   ar
    27     9     7    1
    28     9    13    1
    29     1     7    1
    30     1     2   ar
    31     7     8    1
    32     3     2   ar
