@<TRIPOS>MOLECULE
ZINC44296821_replica-1.pdb
 26 26 0 0 0
SMALL
GASTEIGER

@<TRIPOS>ATOM
      1  C6         7.1930   35.9560   57.2280 C.3     0  <0>0        0.1827
      2  N1         5.8650   36.2300   57.7830 N.am    0  <0>0       -0.2620
      3  C5         5.3940   35.4840   58.8020 C.2     0  <0>0        0.4018
      4  O2         6.0700   34.5840   59.2600 O.2     0  <0>0       -0.2264
      5  H11        5.3250   36.9480   57.4180 H       0  <0>0        0.1532
      6  O1         4.1740   35.7360   59.3120 O.3     0  <0>0       -0.4419
      7  C2         3.1060   34.8830   58.8920 C.3     0  <0>0        0.1378
      8  C1         1.8600   35.7270   58.6140 C.3     0  <0>0        0.0437
      9  C3         2.8000   33.8670   59.9940 C.3     0  <0>0        0.0437
     10  C4         3.5160   34.1440   57.6170 C.3     0  <0>0        0.0437
     11  C7         8.1880   36.9950   57.7500 C.3     0  <0>0        0.0600
     12  C8         9.0540   36.3690   58.8140 C.ar    0  <0>0        0.0097
     13  C13        9.3430   37.0690   59.9710 C.ar    0  <0>0        0.1634
     14  C12       10.1340   36.4900   60.9520 C.ar    0  <0>0        0.1709
     15  F1         8.8490   38.3150   60.1500 F       0  <0>0       -0.2021
     16  C11       10.6430   35.2160   60.7650 C.ar    0  <0>0        0.1010
     17  F2        10.4120   37.1700   62.0860 F       0  <0>0       -0.2019
     18  C10       10.3570   34.5210   59.6050 C.ar    0  <0>0        0.0059
     19  C9         9.5630   35.0970   58.6310 C.ar    0  <0>0       -0.0019
     20  C14       11.5080   34.5870   61.8280 C.3     0  <0>0        0.4207
     21  F3        11.7380   35.5140   62.8500 F       0  <0>0       -0.1658
     22  F4        10.8580   33.4650   62.3520 F       0  <0>0       -0.1658
     23  F5        12.7290   34.1990   61.2650 F       0  <0>0       -0.1658
     24  C15        7.1340   36.0300   55.7240 C.2     0  <0>0        0.3827
     25  O3         8.1250   36.3450   55.0900 O.co2   0  <0>0       -0.2438
     26  O4         6.0930   35.7760   55.1430 O.co2   0  <0>0       -0.2438
@<TRIPOS>BOND
     1    25    24   ar
     2    26    24   ar
     3    24     1    1
     4     1    11    1
     5     1     2    1
     6     5     2    1
     7    10     7    1
     8    11    12    1
     9     2     3   am
    10     8     7    1
    11    19    12   ar
    12    19    18   ar
    13     3     4    2
    14     3     6    1
    15    12    13   ar
    16     7     6    1
    17     7     9    1
    18    18    16   ar
    19    13    15    1
    20    13    14   ar
    21    16    14   ar
    22    16    20    1
    23    14    17    1
    24    23    20    1
    25    20    22    1
    26    20    21    1
