@<TRIPOS>MOLECULE
ZINC13942151_replica-1.pdb
 29 32 0 0 0
SMALL
GASTEIGER

@<TRIPOS>ATOM
      1  C15        4.8150   33.4000   55.7740 C.2     0  <0>0        0.1905
      2  N2         6.0160   32.9200   56.0480 N.2     0  <0>0       -0.1488
      3  C16        6.1900   32.0970   57.1110 C.1     0  <0>0        0.2074
      4  N3         6.3360   31.4070   58.0010 N.1     0  <0>0       -0.1694
      5  S1         4.6130   34.5800   54.4810 S.3     0  <0>0       -0.0677
      6  C14        4.8150   36.1800   55.3110 C.3     0  <0>0        0.1496
      7  C13        6.2750   36.4110   55.6060 C.2     0  <0>0        0.2339
      8  N1         6.6490   36.9310   56.7930 N.am    0  <0>0       -0.3052
      9  H20        5.9780   37.1560   57.4560 H       0  <0>0        0.1494
     10  O1         7.1130   36.1300   54.7760 O.2     0  <0>0       -0.2741
     11  C2         8.0670   37.1570   57.0790 C.3     0  <0>0        0.0715
     12  C1         8.3580   38.6590   57.0640 C.3     0  <0>0        0.0213
     13  C3         8.4060   36.5850   58.4570 C.3     0  <0>0        0.0165
     14  C8         9.1250   37.6500   59.2880 C.3     0  <0>0        0.0016
     15  C7         9.4650   37.0780   60.6660 C.3     0  <0>0        0.0001
     16  C6        10.3730   35.8580   60.5030 C.3     0  <0>0        0.0000
     17  C9         8.1750   36.6610   61.3760 C.3     0  <0>0        0.0000
     18  C5         9.6550   34.7940   59.6710 C.3     0  <0>0        0.0001
     19  C4         9.3150   35.3660   58.2930 C.3     0  <0>0        0.0016
     20  C11        8.3660   34.3770   60.3820 C.3     0  <0>0        0.0000
     21  C10        7.4560   35.5960   60.5460 C.3     0  <0>0        0.0001
     22  C12        7.1160   36.1680   59.1680 C.3     0  <0>0        0.0016
     23  N4         3.7290   32.9790   56.4930 N.pl3   0  <0>0       -0.1882
     24  C17        3.0070   33.8940   57.2670 C.ar    0  <0>0        0.0726
     25  C22        1.6500   34.0820   57.0350 C.ar    0  <0>0        0.0166
     26  C21        0.9380   34.9830   57.8040 C.ar    0  <0>0        0.0013
     27  C20        1.5760   35.7030   58.7960 C.ar    0  <0>0        0.0001
     28  C19        2.9280   35.5220   59.0260 C.ar    0  <0>0        0.0013
     29  C18        3.6440   34.6200   58.2640 C.ar    0  <0>0        0.0166
@<TRIPOS>BOND
     1     5     6    1
     2     5     1    1
     3    10     7    2
     4     6     7    1
     5     7     8   am
     6     1     2    2
     7     1    23    1
     8     2     3    1
     9    23    24    1
    10     8    11    1
    11     8     9    1
    12    25    24   ar
    13    25    26   ar
    14    12    11    1
    15    11    13    1
    16     3     4    3
    17    24    29   ar
    18    26    27   ar
    19    29    28   ar
    20    19    13    1
    21    19    18    1
    22    13    22    1
    23    13    14    1
    24    27    28   ar
    25    22    21    1
    26    14    15    1
    27    18    20    1
    28    18    16    1
    29    20    21    1
    30    16    15    1
    31    21    17    1
    32    15    17    1
