@<TRIPOS>MOLECULE
ZINC67331679_replica-1.pdb
 26 27 0 0 0
SMALL
GASTEIGER

@<TRIPOS>ATOM
      1  C8         2.0890   33.5670   56.4570 C.2     0  <0>0        0.0047
      2  C9         1.9760   32.2220   56.5210 C.2     0  <0>0        0.0577
      3  C10        0.8100   31.5580   55.9420 C.2     0  <0>0        0.2460
      4  O3        -0.3100   31.9640   56.1960 O.2     0  <0>0       -0.2701
      5  N2         0.9740   30.4970   55.1280 N.am    0  <0>0       -0.3005
      6  H10        1.8660   30.1740   54.9260 H       0  <0>0        0.1497
      7  C11       -0.1950   29.8310   54.5480 C.3     0  <0>0        0.0944
      8  C12       -0.1000   28.3250   54.7960 C.3     0  <0>0        0.0484
      9  C13       -0.4870   27.5830   53.5420 C.ar    0  <0>0       -0.0099
     10  C18       -0.1620   26.2460   53.4010 C.ar    0  <0>0        0.0537
     11  C17       -0.5230   25.5650   52.2520 C.ar    0  <0>0        0.0111
     12 Cl          0.6910   25.4220   54.6690 Cl      0  <0>0       -0.0826
     13  C16       -1.1970   26.2230   51.2410 C.ar    0  <0>0        0.0008
     14  C15       -1.5150   27.5600   51.3800 C.ar    0  <0>0       -0.0003
     15  C14       -1.1610   28.2400   52.5300 C.ar    0  <0>0       -0.0034
     16  C5         3.2620   34.2350   57.0390 C.ar    0  <0>0        0.0002
     17  C4         4.5470   33.7450   56.7820 C.ar    0  <0>0        0.0014
     18  C3         5.6390   34.3720   57.3260 C.ar    0  <0>0        0.0180
     19  C2         5.4690   35.4950   58.1320 C.ar    0  <0>0        0.0906
     20  C7         4.1910   35.9820   58.3940 C.ar    0  <0>0        0.0180
     21  C6         3.0950   35.3650   57.8500 C.ar    0  <0>0        0.0014
     22  N1         6.5790   36.1290   58.6820 N.pl3   0  <0>0       -0.1006
     23  S1         7.6500   36.9220   57.6980 S.O2    0  <0>0        0.0750
     24  C1         8.2770   38.2950   58.7050 C.3     0  <0>0        0.2016
     25  O1         6.8580   37.4220   56.6300 O.2     0  <0>0       -0.1528
     26  O2         8.6860   35.9810   57.4550 O.2     0  <0>0       -0.1528
@<TRIPOS>BOND
     1    13    14   ar
     2    13    11   ar
     3    14    15   ar
     4    11    10   ar
     5    15     9   ar
     6    10     9   ar
     7    10    12    1
     8     9     8    1
     9     7     8    1
    10     7     5    1
    11     6     5    1
    12     5     3   am
    13     3     4    2
    14     3     2    1
    15     1     2    2
    16     1    16    1
    17    25    23    2
    18    17    16   ar
    19    17    18   ar
    20    16    21   ar
    21    18    19   ar
    22    26    23    2
    23    23    22    1
    24    23    24    1
    25    21    20   ar
    26    19    20   ar
    27    19    22    1
