@<TRIPOS>MOLECULE
ZINC05883276_replica-1.pdb
 25 26 0 0 0
SMALL
GASTEIGER

@<TRIPOS>ATOM
      1  C4         7.0800   34.5380   56.0120 C.ar    0  <0>0        0.0974
      2  C5         7.9090   34.0610   56.9880 C.ar    0  <0>0       -0.0029
      3  C6         7.6060   32.8390   57.6090 C.ar    0  <0>0       -0.0130
      4  C7         6.5020   32.1500   57.2420 C.ar    0  <0>0        0.0322
      5  N2         5.6790   32.6210   56.2670 N.ar    0  <0>0       -0.3238
      6  H1         4.8700   32.0920   56.0040 H       0  <0>0        0.1687
      7  C8         5.9380   33.7890   55.6500 C.ar    0  <0>0        0.2702
      8  O1         5.1880   34.2010   54.7800 O.2     0  <0>0       -0.2659
      9  C9         6.1820   30.8420   57.9190 C.3     0  <0>0        0.0495
     10  C12        9.1350   34.8370   57.3940 C.3     0  <0>0        0.0537
     11  C13        8.8770   35.5350   58.7040 C.ar    0  <0>0       -0.0184
     12  C18        9.8910   35.6550   59.6370 C.ar    0  <0>0       -0.0082
     13  C17        9.6540   36.2950   60.8380 C.ar    0  <0>0       -0.0225
     14  C16        8.4020   36.8160   61.1080 C.ar    0  <0>0       -0.0085
     15  C19       10.7600   36.4260   61.8530 C.3     0  <0>0        0.0310
     16  C15        7.3880   36.6980   60.1760 C.ar    0  <0>0       -0.0225
     17  C14        7.6270   36.0610   58.9720 C.ar    0  <0>0       -0.0082
     18  C20        6.0240   37.2660   60.4700 C.3     0  <0>0        0.0310
     19  N1         7.3600   35.7540   55.3760 N.pl3   0  <0>0       -0.3292
     20  H9         8.3470   35.9640   55.4180 H       0  <0>0        0.1469
     21  C3         6.5640   36.8460   55.9540 C.3     0  <0>0        0.0871
     22  C2         7.2180   38.1870   55.6170 C.3     0  <0>0        0.0212
     23  C1         8.0970   38.6340   56.7860 C.3     0  <0>0        0.0018
     24  C10        8.5080   32.2980   58.6870 C.3     0  <0>0        0.0272
     25  C11        7.8770   32.5540   60.0570 C.3     0  <0>0        0.0051
@<TRIPOS>BOND
     1     8     7    2
     2    19    20    1
     3    19    21    1
     4    19     1    1
     5    22    21    1
     6    22    23    1
     7     7     1   ar
     8     7     5   ar
     9     6     5    1
    10     1     2   ar
    11     5     4   ar
    12     2    10    1
    13     2     3   ar
    14     4     3   ar
    15     4     9    1
    16    10    11    1
    17     3    24    1
    18    24    25    1
    19    11    17   ar
    20    11    12   ar
    21    17    16   ar
    22    12    13   ar
    23    16    18    1
    24    16    14   ar
    25    13    14   ar
    26    13    15    1
