@<TRIPOS>MOLECULE
ZINC21816843_replica-1.pdb
 22 23 0 0 0
SMALL
GASTEIGER

@<TRIPOS>ATOM
      1  C8        11.3370   35.6220   61.5860 C.3     0  <0>0        0.0919
      2  C9        11.0670   36.4240   62.8600 C.3     0  <0>0        0.0261
      3  N1        11.1990   34.1910   61.8720 N.pl3   0  <0>0       -0.3308
      4  H8        10.2640   33.6680   61.6210 H       0  <0>0        0.1471
      5  C7        12.2540   33.4920   62.4620 C.ar    0  <0>0        0.0430
      6  C2        12.0260   32.2530   63.0470 C.ar    0  <0>0       -0.0086
      7  C1        10.6400   31.6610   63.0450 C.3     0  <0>0        0.0323
      8  C3        13.0720   31.5620   63.6300 C.ar    0  <0>0       -0.0007
      9  C4        14.3440   32.1030   63.6320 C.ar    0  <0>0        0.0294
     10  C5        14.5760   33.3370   63.0460 C.ar    0  <0>0        0.1413
     11  C6        13.5330   34.0340   62.4660 C.ar    0  <0>0        0.0436
     12  F3        15.8210   33.8610   63.0450 F       0  <0>0       -0.2041
     13  C10       10.3470   36.0190   60.5220 C.ar    0  <0>0       -0.0044
     14  C15        9.6790   37.2270   60.6180 C.ar    0  <0>0        0.0004
     15  C14        8.7710   37.5930   59.6430 C.ar    0  <0>0        0.0368
     16  C13        8.5290   36.7500   58.5680 C.ar    0  <0>0        0.1443
     17  C12        9.2010   35.5390   58.4750 C.ar    0  <0>0        0.0368
     18  C11       10.1120   35.1800   59.4490 C.ar    0  <0>0        0.0004
     19  O1         7.6380   37.1090   57.6080 O.3     0  <0>0       -0.4236
     20  C16        7.7530   38.4320   57.0780 C.3     0  <0>0        0.5087
     21  F1         9.0840   38.6790   56.7280 F       0  <0>0       -0.1550
     22  F2         6.9430   38.5500   55.9430 F       0  <0>0       -0.1550
@<TRIPOS>BOND
     1    22    20    1
     2    21    20    1
     3    20    19    1
     4    19    16    1
     5    17    16   ar
     6    17    18   ar
     7    16    15   ar
     8    18    13   ar
     9    15    14   ar
    10    13    14   ar
    11    13     1    1
    12     1     3    1
    13     1     2    1
    14     4     3    1
    15     3     5    1
    16     5    11   ar
    17     5     6   ar
    18    11    10   ar
    19    12    10    1
    20     7     6    1
    21    10     9   ar
    22     6     8   ar
    23     8     9   ar
