@<TRIPOS>MOLECULE
ZINC12401720_replica-1.pdb
 36 39 0 0 0
SMALL
GASTEIGER

@<TRIPOS>ATOM
      1  C10        8.1500   36.3370   58.1970 C.2     0  <0>0        0.0132
      2  C11        6.8710   35.9110   58.3470 C.2     0  <0>0        0.1075
      3  C12        5.6810   36.2320   57.5490 C.2     0  <0>0        0.3434
      4  O1         5.7560   36.9820   56.5930 O.2     0  <0>0       -0.2410
      5  N1         4.5030   35.6770   57.8990 N.am    0  <0>0       -0.1304
      6  C13        4.4930   34.8360   58.9950 C.3     0  <0>0        0.2525
      7  C14        3.3870   34.2060   59.4660 C.2     0  <0>0        0.1008
      8  C15        2.0700   34.4330   58.7490 C.2     0  <0>0        0.0269
      9  C16        2.1240   35.3610   57.5530 C.2     0  <0>0        0.1449
     10  C17        3.3080   35.9130   57.2100 C.2     0  <0>0        0.2826
     11  C18        0.9400   35.6480   56.7990 C.1     0  <0>0        0.1076
     12  N3         0.0010   35.8750   56.2020 N.1     0  <0>0       -0.1906
     13  C28        3.4610   33.3490   60.6100 C.1     0  <0>0        0.1010
     14  N4         3.5200   32.6690   61.5180 N.1     0  <0>0       -0.1910
     15  S1         6.1790   34.8070   59.5690 S.3     0  <0>0       -0.0559
     16  C19        1.5490   33.0970   58.2870 C.ar    0  <0>0        0.0014
     17  C24        2.1600   32.4430   57.2330 C.ar    0  <0>0       -0.0003
     18  C23        1.6830   31.2180   56.8090 C.ar    0  <0>0       -0.0043
     19  C22        0.5940   30.6440   57.4400 C.ar    0  <0>0       -0.0225
     20  C21       -0.0170   31.2960   58.4940 C.ar    0  <0>0       -0.0043
     21  C20        0.4640   32.5210   58.9210 C.ar    0  <0>0       -0.0003
     22  C25        0.0740   29.3080   56.9770 C.3     0  <0>0        0.0224
     23  C26       -1.3150   29.0670   57.5730 C.3     0  <0>0        0.0047
     24  C27       -0.0200   29.2980   55.4500 C.3     0  <0>0        0.0047
     25  N2         3.3420   36.7530   56.1230 N.pl3   0  <0>0       -0.2500
     26  H14        3.5090   37.7000   56.2470 H       0  <0>0        0.2882
     27  H15        3.1990   36.3980   55.2320 H       0  <0>0        0.2882
     28  C7         9.1550   36.0180   59.2200 C.ar    0  <0>0        0.0007
     29  C6         9.8830   34.8250   59.1440 C.ar    0  <0>0       -0.0003
     30  C5        10.8240   34.5330   60.1080 C.ar    0  <0>0       -0.0043
     31  C4        11.0500   35.4160   61.1500 C.ar    0  <0>0       -0.0225
     32  C9        10.3340   36.5980   61.2340 C.ar    0  <0>0       -0.0043
     33  C8         9.3930   36.9080   60.2740 C.ar    0  <0>0       -0.0003
     34  C2        12.0800   35.0880   62.2000 C.3     0  <0>0        0.0224
     35  C1        11.9110   36.0310   63.3920 C.3     0  <0>0        0.0047
     36  C3        11.8930   33.6420   62.6630 C.3     0  <0>0        0.0047
@<TRIPOS>BOND
     1    27    25    1
     2    24    22    1
     3    25    26    1
     4    25    10    1
     5    12    11    3
     6     4     3    2
     7    11     9    1
     8    18    17   ar
     9    18    19   ar
    10    22    19    1
    11    22    23    1
    12    10     9    2
    13    10     5    1
    14    17    16   ar
    15    19    20   ar
    16     3     5   am
    17     3     2    1
    18     9     8    1
    19     5     6    1
    20     1     2    2
    21     1    28    1
    22    16     8    1
    23    16    21   ar
    24     2    15    1
    25    20    21   ar
    26     8     7    2
    27     6     7    1
    28     6    15    1
    29    29    28   ar
    30    29    30   ar
    31    28    33   ar
    32     7    13    1
    33    30    31   ar
    34    33    32   ar
    35    13    14    3
    36    31    32   ar
    37    31    34    1
    38    34    36    1
    39    34    35    1
