@<TRIPOS>MOLECULE
ZINC61625212_replica-1.pdb
 20 21 0 0 0
SMALL
GASTEIGER

@<TRIPOS>ATOM
      1  C9        -0.0970   30.4740   55.9320 C.3     0  <0>0        0.1623
      2  C10        0.5630   31.7710   56.1540 C.1     0  <0>0        0.0923
      3  N1         1.0720   32.7730   56.3250 N.1     0  <0>0       -0.1942
      4  C8         0.0090   30.0950   54.4530 C.3     0  <0>0        0.0399
      5  C7        -1.3490   29.5900   53.9580 C.3     0  <0>0        0.0292
      6  C4        -1.1520   28.3350   53.1480 C.ar    0  <0>0       -0.0221
      7  C3        -1.7200   28.2270   51.8920 C.ar    0  <0>0       -0.0043
      8  C2        -1.5390   27.0760   51.1480 C.ar    0  <0>0       -0.0003
      9  C1        -0.7890   26.0330   51.6600 C.ar    0  <0>0       -0.0000
     10  C6        -0.2200   26.1420   52.9150 C.ar    0  <0>0       -0.0003
     11  C5        -0.4020   27.2920   53.6600 C.ar    0  <0>0       -0.0043
     12  N2         0.5570   29.4480   56.7480 N.pl3   0  <0>0       -0.3225
     13  H11        1.4890   29.5490   56.9980 H       0  <0>0        0.1477
     14  C11       -0.1610   28.3230   57.1630 C.ar    0  <0>0        0.0454
     15  C16       -1.4920   28.4500   57.5410 C.ar    0  <0>0        0.0166
     16  C15       -2.2020   27.3360   57.9480 C.ar    0  <0>0        0.0309
     17  C14       -1.5850   26.0980   57.9880 C.ar    0  <0>0        0.1402
     18  C13       -0.2580   25.9710   57.6160 C.ar    0  <0>0        0.0309
     19  F1        -2.2800   25.0100   58.3900 F       0  <0>0       -0.2042
     20  C12        0.4550   27.0790   57.2050 C.ar    0  <0>0        0.0166
@<TRIPOS>BOND
     1     8     9   ar
     2     8     7   ar
     3     9    10   ar
     4     7     6   ar
     5    10    11   ar
     6     6    11   ar
     7     6     5    1
     8     5     4    1
     9     4     1    1
    10     1     2    1
    11     1    12    1
    12     2     3    3
    13    12    13    1
    14    12    14    1
    15    14    20   ar
    16    14    15   ar
    17    20    18   ar
    18    15    16   ar
    19    18    17   ar
    20    16    17   ar
    21    17    19    1
