@<TRIPOS>MOLECULE
ZINC12986828_replica-1.pdb
 33 36 0 0 0
SMALL
GASTEIGER

@<TRIPOS>ATOM
      1  C9         8.0320   36.4700   57.3800 C.2     0  <0>0       -0.0001
      2  C10        8.6090   36.8750   56.2240 C.2     0  <0>0        0.0342
      3  S1         7.3230   36.6370   55.0130 S.3     0  <0>0       -0.0588
      4  C11        6.0510   36.0040   56.0760 C.2     0  <0>0        0.1530
      5  C12        6.6530   35.9920   57.3460 C.3     0  <0>0        0.1580
      6  C13        5.8370   35.5170   58.4180 C.2     0  <0>0        0.2392
      7  O1         6.2750   35.4720   59.5550 O.2     0  <0>0       -0.2739
      8  N1         4.5800   35.1150   58.1570 N.am    0  <0>0       -0.2538
      9  H1         4.0240   34.7890   58.8820 H       0  <0>0        0.1577
     10  C14        4.0700   35.1660   56.8920 C.2     0  <0>0        0.2137
     11  N2         4.8010   35.5980   55.8860 N.2     0  <0>0       -0.3778
     12  S2         2.4140   34.6350   56.6000 S.3     0  <0>0       -0.0571
     13  C15        1.5480   35.5950   57.8680 C.3     0  <0>0        0.1509
     14  C16        1.4240   34.7720   59.1240 C.2     0  <0>0        0.2376
     15  O2         2.3830   34.6270   59.8520 O.2     0  <0>0       -0.2738
     16  N3         0.2470   34.1960   59.4380 N.am    0  <0>0       -0.2814
     17  H14       -0.5370   34.3640   58.8920 H       0  <0>0        0.1549
     18  C17        0.1540   33.3540   60.5550 C.ar    0  <0>0        0.0783
     19  C22       -0.2490   33.8660   61.7830 C.ar    0  <0>0        0.1557
     20  C21       -0.3430   33.0320   62.8810 C.ar    0  <0>0        0.0605
     21  F1        -0.5540   35.1770   61.9010 F       0  <0>0       -0.2028
     22  C20       -0.0260   31.6900   62.7610 C.ar    0  <0>0        0.1425
     23  C19        0.3810   31.1790   61.5390 C.ar    0  <0>0        0.0311
     24  F2        -0.1140   30.8770   63.8370 F       0  <0>0       -0.2041
     25  C18        0.4720   32.0080   60.4380 C.ar    0  <0>0        0.0193
     26  C5         8.7860   36.5100   58.6550 C.ar    0  <0>0       -0.0029
     27  C4         8.7300   37.6440   59.4660 C.ar    0  <0>0       -0.0006
     28  C3         9.4290   37.6750   60.6540 C.ar    0  <0>0       -0.0046
     29  C2        10.1940   36.5870   61.0380 C.ar    0  <0>0       -0.0258
     30  C1        10.9610   36.6290   62.3350 C.3     0  <0>0        0.0307
     31  C7        10.2590   35.4630   60.2340 C.ar    0  <0>0       -0.0258
     32  C6         9.5600   35.4180   59.0470 C.ar    0  <0>0       -0.0048
     33  C8        11.0960   34.2830   60.6590 C.3     0  <0>0        0.0307
@<TRIPOS>BOND
     1     3     4    1
     2     3     2    1
     3    11     4    2
     4    11    10    2
     5     4     5    1
     6     2     1    2
     7    12    10    1
     8    12    13    1
     9    10     8    1
    10     5     1    1
    11     5     6    1
    12     1    26    1
    13    13    14    1
    14     8     6   am
    15     8     9    1
    16     6     7    2
    17    26    32   ar
    18    26    27   ar
    19    17    16    1
    20    32    31   ar
    21    14    16   am
    22    14    15    2
    23    16    18    1
    24    27    28   ar
    25    31    33    1
    26    31    29   ar
    27    25    18   ar
    28    25    23   ar
    29    18    19   ar
    30    28    29   ar
    31    29    30    1
    32    23    22   ar
    33    19    21    1
    34    19    20   ar
    35    22    20   ar
    36    22    24    1
