@<TRIPOS>MOLECULE
ZINC40119024_replica-1.pdb
 22 22 0 0 0
SMALL
GASTEIGER

@<TRIPOS>ATOM
      1  C2         8.3560   36.1160   57.9510 C.ar    0  <0>0        0.1734
      2  C3         9.1280   36.4060   59.0600 C.ar    0  <0>0        0.0446
      3  C4         9.6660   35.3670   59.8250 C.ar    0  <0>0        0.0574
      4  C5         9.4220   34.0400   59.4640 C.ar    0  <0>0        0.0192
      5  C6         8.6510   33.7570   58.3570 C.ar    0  <0>0        0.0947
      6  C7         8.1120   34.7900   57.6000 C.ar    0  <0>0        0.1828
      7 Cl          8.3480   32.1060   57.9110 Cl      0  <0>0       -0.0790
      8  C9        10.4920   35.6730   61.0090 C.2     0  <0>0        0.2460
      9  O3        10.3480   36.7280   61.5950 O.2     0  <0>0       -0.2701
     10  N1        11.4050   34.7810   61.4420 N.am    0  <0>0       -0.3000
     11  H9        11.5210   33.9380   60.9740 H       0  <0>0        0.1498
     12  C10       12.2250   35.0840   62.6180 C.3     0  <0>0        0.1016
     13  C11       12.9390   33.8120   63.0830 C.3     0  <0>0        0.0867
     14  S1        11.8080   32.4000   62.9480 S.3     0  <0>0       -0.0396
     15  C12       12.7290   31.0270   63.6940 C.3     0  <0>0        0.4438
     16  F1        13.0850   30.1100   62.7000 F       0  <0>0       -0.1602
     17  F2        13.8840   31.5210   64.3090 F       0  <0>0       -0.1602
     18  F3        11.9270   30.3930   64.6490 F       0  <0>0       -0.1602
     19  O1         7.8310   37.1250   57.2060 O.3     0  <0>0       -0.4683
     20  C1         8.6410   38.2880   57.0250 C.3     0  <0>0        0.2526
     21  O2         7.3490   34.5060   56.5120 O.3     0  <0>0       -0.4675
     22  C8         5.9430   34.3640   56.7250 C.3     0  <0>0        0.2527
@<TRIPOS>BOND
     1    21    22    1
     2    21     6    1
     3    20    19    1
     4    19     1    1
     5     6     1   ar
     6     6     5   ar
     7     7     5    1
     8     1     2   ar
     9     5     4   ar
    10     2     3   ar
    11     4     3   ar
    12     3     8    1
    13    11    10    1
    14     8    10   am
    15     8     9    2
    16    10    12    1
    17    12    13    1
    18    16    15    1
    19    14    13    1
    20    14    15    1
    21    15    17    1
    22    15    18    1
