@<TRIPOS>MOLECULE
ZINC36919549_replica-1.pdb
 22 23 0 0 0
SMALL
GASTEIGER

@<TRIPOS>ATOM
      1  N1        -0.9460   31.8440   56.1170 N.pl3   0  <0>0       -0.3340
      2  H14       -1.1180   32.5870   55.5180 H       0  <0>0        0.1468
      3  C2        -1.3180   30.4840   55.7210 C.3     0  <0>0        0.0694
      4  C1        -2.8030   30.4480   55.3540 C.3     0  <0>0        0.0212
      5  C3        -0.4840   30.0580   54.5110 C.3     0  <0>0        0.0242
      6  C4        -1.4140   29.5830   53.3920 C.3     0  <0>0        0.0280
      7  C5        -1.0510   28.1740   53.0010 C.ar    0  <0>0       -0.0221
      8  C10       -1.4990   27.6510   51.8020 C.ar    0  <0>0       -0.0043
      9  C9        -1.1620   26.3600   51.4420 C.ar    0  <0>0       -0.0003
     10  C8        -0.3840   25.5890   52.2850 C.ar    0  <0>0       -0.0000
     11  C7         0.0610   26.1090   53.4860 C.ar    0  <0>0       -0.0003
     12  C6        -0.2730   27.4020   53.8440 C.ar    0  <0>0       -0.0043
     13  C11       -0.3400   32.0710   57.3580 C.ar    0  <0>0        0.0446
     14  C16        0.0220   30.9980   58.1610 C.ar    0  <0>0        0.0148
     15  C15        0.6240   31.2210   59.3830 C.ar    0  <0>0        0.0076
     16  C14        0.8580   32.5210   59.8150 C.ar    0  <0>0        0.0303
     17  C13        0.4900   33.5950   59.0150 C.ar    0  <0>0        0.0076
     18  C12       -0.1070   33.3710   57.7900 C.ar    0  <0>0        0.0148
     19  S1         1.6210   32.8060   61.3780 S.3     0  <0>0       -0.0442
     20  C17        0.2240   32.9730   62.5240 C.3     0  <0>0        0.3707
     21  F1        -0.2410   34.2930   62.5040 F       0  <0>0       -0.1852
     22  F2        -0.8050   32.1100   62.1320 F       0  <0>0       -0.1852
@<TRIPOS>BOND
     1     9     8   ar
     2     9    10   ar
     3     8     7   ar
     4    10    11   ar
     5     7     6    1
     6     7    12   ar
     7     6     5    1
     8    11    12   ar
     9     5     3    1
    10     4     3    1
    11     2     1    1
    12     3     1    1
    13     1    13    1
    14    13    18   ar
    15    13    14   ar
    16    18    17   ar
    17    14    15   ar
    18    17    16   ar
    19    15    16   ar
    20    16    19    1
    21    19    20    1
    22    22    20    1
    23    21    20    1
