@<TRIPOS>MOLECULE
ZINC38551336_replica-1.pdb
 25 27 0 0 0
SMALL
GASTEIGER

@<TRIPOS>ATOM
      1  C9         4.7150   35.9990   58.4660 C.2     0  <0>0        0.2517
      2  O1         5.4800   35.7700   57.5500 O.2     0  <0>0       -0.2697
      3  N2         5.1590   36.6220   59.5760 N.am    0  <0>0       -0.2509
      4  H11        4.5480   36.8040   60.3070 H       0  <0>0        0.1580
      5  C10        6.4910   37.0040   59.6710 C.2     0  <0>0        0.2132
      6  S1         7.2880   38.4880   59.0740 S.3     0  <0>0       -0.0593
      7  C12        8.9380   38.0990   59.6420 C.3     0  <0>0        0.1247
      8  C11        8.7250   36.8800   60.2230 C.2     0  <0>0        0.1225
      9  N3         7.5050   36.3630   60.2220 N.2     0  <0>0       -0.3842
     10  C13        9.8500   36.1420   60.8480 C.ar    0  <0>0        0.0264
     11  C18       10.5860   36.7280   61.8770 C.ar    0  <0>0        0.0027
     12  C17       11.6280   36.0350   62.4580 C.ar    0  <0>0        0.0059
     13  C16       11.9510   34.7650   62.0130 C.ar    0  <0>0        0.0301
     14  C15       11.2260   34.1800   60.9890 C.ar    0  <0>0        0.0059
     15  I1        13.5390   33.7230   62.8950 I       0  <0>0       -0.0425
     16  C14       10.1780   34.8620   60.4050 C.ar    0  <0>0        0.0027
     17  C7         3.2980   35.5920   58.3650 C.ar    0  <0>0        0.0550
     18  C6         2.5130   36.0470   57.3030 C.ar    0  <0>0        0.0046
     19  C5         1.1890   35.6650   57.2100 C.ar    0  <0>0        0.0014
     20  C4         0.6360   34.8340   58.1650 C.ar    0  <0>0        0.0145
     21  C3         1.4090   34.3760   59.2260 C.ar    0  <0>0        0.0481
     22  C8         2.7370   34.7570   59.3310 C.ar    0  <0>0        0.0190
     23  N1         0.8440   33.5360   60.1890 N.pl3   0  <0>0       -0.3041
     24  C1         1.1320   32.0990   60.1670 C.3     0  <0>0        0.1122
     25  C2        -0.0350   34.0910   61.2210 C.3     0  <0>0        0.1122
@<TRIPOS>BOND
     1    19    18   ar
     2    19    20   ar
     3    18    17   ar
     4     2     1    2
     5    20    21   ar
     6    17     1    1
     7    17    22   ar
     8     1     3   am
     9     6     7    1
    10     6     5    1
    11    21    22   ar
    12    21    23    1
    13     3     5    1
    14     3     4    1
    15     7     8    1
    16     5     9    2
    17    24    23    1
    18    23    25    1
    19     9     8    2
    20     8    10    1
    21    16    10   ar
    22    16    14   ar
    23    10    11   ar
    24    14    13   ar
    25    11    12   ar
    26    13    12   ar
    27    13    15    1
