@<TRIPOS>MOLECULE
ZINC62171466_replica-1.pdb
 23 25 0 0 0
SMALL
GASTEIGER

@<TRIPOS>ATOM
      1  C10       10.4260   36.4000   61.3430 C.ar    0  <0>0        0.0446
      2  C11       10.3840   35.1580   60.7220 C.ar    0  <0>0        0.0143
      3  C12       11.1700   34.1260   61.1890 C.ar    0  <0>0        0.0028
      4  C13       12.0070   34.3290   62.2850 C.ar    0  <0>0        0.0195
      5  C14       12.0470   35.5760   62.9070 C.ar    0  <0>0        0.0028
      6  C15       11.2640   36.6070   62.4330 C.ar    0  <0>0        0.0143
      7  N1         9.6290   37.4440   60.8680 N.pl3   0  <0>0       -0.3337
      8  H13        9.7850   38.3510   61.1750 H       0  <0>0        0.1468
      9  C2         8.5590   37.1700   59.9080 C.3     0  <0>0        0.0734
     10  C1         7.2130   37.1500   60.6360 C.3     0  <0>0        0.0215
     11  C3         8.5430   38.2620   58.8360 C.3     0  <0>0        0.0458
     12  C4         8.2080   37.6500   57.5000 C.ar    0  <0>0       -0.0205
     13  C9         8.5500   36.3360   57.2360 C.ar    0  <0>0       -0.0042
     14  C8         8.2390   35.7740   56.0130 C.ar    0  <0>0       -0.0003
     15  C7         7.5940   36.5270   55.0490 C.ar    0  <0>0       -0.0000
     16  C6         7.2570   37.8420   55.3120 C.ar    0  <0>0       -0.0003
     17  C5         7.5650   38.4030   56.5370 C.ar    0  <0>0       -0.0042
     18  C16       12.8530   33.2190   62.7900 C.ar    0  <0>0        0.1022
     19  N3        14.1610   33.2450   62.9320 N.ar    0  <0>0       -0.1726
     20  N2        14.5680   32.0040   63.4380 N.ar    0  <0>0       -0.2743
     21  C18       13.4720   31.2300   63.5870 C.ar    0  <0>0        0.0924
     22  H2        15.4800   31.7440   63.6430 H       0  <0>0        0.1890
     23  C17       12.3970   31.9490   63.1960 C.ar    0  <0>0        0.0408
@<TRIPOS>BOND
     1    15    16   ar
     2    15    14   ar
     3    16    17   ar
     4    14    13   ar
     5    17    12   ar
     6    13    12   ar
     7    12    11    1
     8    11     9    1
     9     9    10    1
    10     9     7    1
    11     2     3   ar
    12     2     1   ar
    13     7     8    1
    14     7     1    1
    15     3     4   ar
    16     1     6   ar
    17     4    18    1
    18     4     5   ar
    19     6     5   ar
    20    18    19   ar
    21    18    23   ar
    22    19    20   ar
    23    23    21   ar
    24    20    21   ar
    25    20    22    1
