@<TRIPOS>MOLECULE
ZINC17032039_replica-1.pdb
 23 23 0 0 0
SMALL
GASTEIGER

@<TRIPOS>ATOM
      1  N2         3.0070   33.2880   55.5410 N.am    0  <0>0       -0.2443
      2  H19        2.6890   33.6320   54.6910 H       0  <0>0        0.1696
      3  N1         2.2020   32.4220   56.2920 N.3     0  <0>0       -0.1322
      4  C10        1.0040   32.1730   55.9150 C.3     0  <0>0        0.1114
      5  C9         0.4670   30.7670   55.9880 C.3     0  <0>0        0.0208
      6  C2        -0.0710   30.3540   54.6180 C.3     0  <0>0        0.0018
      7  C1        -1.5800   30.6060   54.5650 C.3     0  <0>0        0.0001
      8  C3         0.2050   28.8670   54.3880 C.3     0  <0>0        0.0047
      9  C4        -0.8790   28.2810   53.4820 C.3     0  <0>0        0.0254
     10  C5        -0.4530   26.9150   53.0070 C.2     0  <0>0       -0.0346
     11  C6        -0.8960   26.4510   51.8650 C.2     0  <0>0       -0.0478
     12  C7        -1.7330   27.3270   50.9690 C.3     0  <0>0        0.0260
     13  C8        -0.5670   25.0410   51.4470 C.3     0  <0>0        0.0260
     14  C11        4.2240   33.6440   55.9990 C.2     0  <0>0        0.1459
     15  S1         5.0920   32.5880   57.0300 S.2     0  <0>0       -0.0176
     16  N3         4.7600   34.8270   55.6400 N.am    0  <0>0       -0.3168
     17  H20        4.2700   35.4220   55.0530 H       0  <0>0        0.1484
     18  C12        6.0830   35.2120   56.1370 C.3     0  <0>0        0.0706
     19  C17        6.8730   35.8880   55.0140 C.3     0  <0>0        0.0195
     20  C16        8.2550   36.2900   55.5340 C.3     0  <0>0        0.0017
     21  C15        8.0960   37.2650   56.7020 C.3     0  <0>0        0.0001
     22  C14        7.3060   36.5900   57.8250 C.3     0  <0>0        0.0017
     23  C13        5.9250   36.1860   57.3070 C.3     0  <0>0        0.0195
@<TRIPOS>BOND
     1    12    11    1
     2    13    11    1
     3    11    10    2
     4    10     9    1
     5     9     8    1
     6     8     6    1
     7     7     6    1
     8     6     5    1
     9     2     1    1
    10    19    20    1
    11    19    18    1
    12    17    16    1
    13    20    21    1
    14     1    14    1
    15     1     3    1
    16    16    14    1
    17    16    18    1
    18     4     5    1
    19     4     3    1
    20    14    15    2
    21    18    23    1
    22    21    22    1
    23    23    22    1
