@<TRIPOS>MOLECULE
ZINC37213300_replica-1.pdb
 22 23 0 0 0
SMALL
GASTEIGER

@<TRIPOS>ATOM
      1  C8        -0.4360   28.5490   54.2710 C.3     0  <0>0        0.0919
      2  N1         0.4310   28.1380   55.3770 N.pl3   0  <0>0       -0.3305
      3  H8         1.3200   27.7950   55.1960 H       0  <0>0        0.1471
      4  C5        -0.0220   28.2400   56.6950 C.ar    0  <0>0        0.0471
      5  C4         0.1390   29.4290   57.3960 C.ar    0  <0>0        0.0141
      6  C3        -0.3100   29.5280   58.6990 C.ar    0  <0>0       -0.0008
      7  C2        -0.9200   28.4450   59.3060 C.ar    0  <0>0        0.0057
      8  C1        -1.4090   28.5570   60.7270 C.3     0  <0>0        0.0334
      9  C7        -1.0790   27.2580   58.6130 C.ar    0  <0>0        0.1374
     10  C6        -0.6360   27.1540   57.3060 C.ar    0  <0>0        0.0436
     11  F1        -1.6700   26.2000   59.2100 F       0  <0>0       -0.2045
     12  C9        -1.8200   28.9110   54.8150 C.3     0  <0>0        0.0240
     13  C10       -2.1190   30.3800   54.5080 C.3     0  <0>0        0.0019
     14  C11       -2.8840   31.0000   55.6800 C.3     0  <0>0        0.0001
     15  C12       -0.8040   31.1350   54.3020 C.3     0  <0>0        0.0001
     16  C13       -2.9660   30.4740   53.2390 C.3     0  <0>0        0.0001
     17  C14       -0.5650   27.4150   53.2860 C.ar    0  <0>0       -0.0046
     18  C19       -1.2450   27.6070   52.0970 C.ar    0  <0>0       -0.0027
     19  C18       -1.3590   26.5690   51.1920 C.ar    0  <0>0       -0.0003
     20  C17       -0.8010   25.3360   51.4780 C.ar    0  <0>0       -0.0000
     21  C16       -0.1260   25.1430   52.6690 C.ar    0  <0>0       -0.0003
     22  C15       -0.0080   26.1830   53.5730 C.ar    0  <0>0       -0.0027
@<TRIPOS>BOND
     1    19    20   ar
     2    19    18   ar
     3    20    21   ar
     4    18    17   ar
     5    21    22   ar
     6    16    13    1
     7    17    22   ar
     8    17     1    1
     9     1    12    1
    10     1     2    1
    11    15    13    1
    12    13    12    1
    13    13    14    1
    14     3     2    1
    15     2     4    1
    16     4    10   ar
    17     4     5   ar
    18    10     9   ar
    19     5     6   ar
    20     9    11    1
    21     9     7   ar
    22     6     7   ar
    23     7     8    1
