@<TRIPOS>MOLECULE
ZINC60355799_replica-1.pdb
 26 27 0 0 0
SMALL
GASTEIGER

@<TRIPOS>ATOM
      1  C6         9.2950   35.0430   58.8500 C.ar    0  <0>0        0.0622
      2  C7        10.0730   34.7950   59.9740 C.ar    0  <0>0        0.0156
      3  C8        10.3510   35.8180   60.8590 C.ar    0  <0>0        0.0013
      4  C9         9.8550   37.0880   60.6270 C.ar    0  <0>0        0.0014
      5  C10        9.0800   37.3380   59.5100 C.ar    0  <0>0        0.0199
      6  C11        8.8040   36.3210   58.6170 C.ar    0  <0>0        0.1272
      7  N1         9.0130   34.0110   57.9520 N.pl3   0  <0>0       -0.3335
      8  H11        9.0320   34.1800   56.9970 H       0  <0>0        0.1468
      9  C5         8.6880   32.6730   58.4520 C.3     0  <0>0        0.0661
     10  C4         7.6310   32.0340   57.5490 C.3     0  <0>0       -0.0381
     11  C2         6.8210   31.0160   58.3530 C.3     0  <0>0       -0.0173
     12  C1         6.9620   29.6320   57.7150 C.3     0  <0>0       -0.0020
     13  C3         7.3430   30.9700   59.7910 C.3     0  <0>0       -0.0020
     14  N2         6.7330   33.0760   57.0330 N.4     0  <0>0        0.3893
     15  C16        5.3530   32.8420   57.5090 C.3     0  <0>0       -0.0773
     16  C15        4.4050   33.2650   56.3720 C.3     0  <0>0       -0.0250
     17  C14        5.3320   33.7180   55.2210 C.3     0  <0>0       -0.0250
     18  C13        6.6670   33.0060   55.5510 C.3     0  <0>0       -0.0773
     19  H24        7.0530   33.9870   57.3250 H       0  <0>0       -0.0795
     20  S1         7.8230   36.6430   57.1900 S.O2    0  <0>0        0.0932
     21  O1         8.5500   36.0700   56.1120 O.2     0  <0>0       -0.1611
     22  O2         6.5270   36.1650   57.5250 O.2     0  <0>0       -0.1611
     23  C12        7.8000   38.4510   57.0380 C.3     0  <0>0        0.5262
     24  F1         7.0290   38.8150   55.9290 F       0  <0>0       -0.1500
     25  F2         7.2460   39.0090   58.1960 F       0  <0>0       -0.1500
     26  F3         9.1070   38.9220   56.8730 F       0  <0>0       -0.1500
@<TRIPOS>BOND
     1    17    18    1
     2    17    16    1
     3    18    14    1
     4    24    23    1
     5    21    20    2
     6    16    15    1
     7    26    23    1
     8     8     7    1
     9    14    19    1
    10    14    15    1
    11    14    10    1
    12    23    20    1
    13    23    25    1
    14    20    22    2
    15    20     6    1
    16    10    11    1
    17    10     9    1
    18    12    11    1
    19     7     9    1
    20     7     1    1
    21    11    13    1
    22     6     1   ar
    23     6     5   ar
    24     1     2   ar
    25     5     4   ar
    26     2     3   ar
    27     4     3   ar
