@<TRIPOS>MOLECULE
ZINC01599345_replica-1.pdb
 17 18 0 0 0
SMALL
GASTEIGER

@<TRIPOS>ATOM
      1  S1        -0.1390   28.3360   54.7960 S.3     0  <0>0        0.0506
      2  O1         0.5530   27.4920   55.7060 O.3     0  <0>0       -0.0570
      3  O2         0.4220   29.5440   54.3000 O.3     0  <0>0       -0.0570
      4  C4        -0.5300   27.3470   53.3910 C.ar    0  <0>0        0.1203
      5  C3        -1.2530   27.8880   52.3440 C.ar    0  <0>0        0.0198
      6  C2        -1.5600   27.1120   51.2420 C.ar    0  <0>0        0.0014
      7  C1        -1.1440   25.7940   51.1870 C.ar    0  <0>0        0.0001
      8  C6        -0.4210   25.2540   52.2340 C.ar    0  <0>0        0.0014
      9  C5        -0.1140   26.0300   53.3360 C.ar    0  <0>0        0.0198
     10  O3        -1.4550   28.7100   55.4630 O.3     0  <0>0       -0.3572
     11  C7        -1.4130   28.6870   56.8220 C.ar    0  <0>0        0.1718
     12  C12       -0.6990   29.6570   57.5110 C.ar    0  <0>0        0.0403
     13  C11       -0.6570   29.6310   58.8920 C.ar    0  <0>0        0.0099
     14  C10       -1.3250   28.6390   59.5860 C.ar    0  <0>0        0.0348
     15  C9        -2.0370   27.6710   58.9020 C.ar    0  <0>0        0.0099
     16 Br         -1.2650   28.6070   61.4770 Br      0  <0>0       -0.0490
     17  C8        -2.0870   27.6960   57.5210 C.ar    0  <0>0        0.0403
@<TRIPOS>BOND
     1     7     6   ar
     2     7     8   ar
     3     6     5   ar
     4     8     9   ar
     5     5     4   ar
     6     9     4   ar
     7     4     1    1
     8     3     1    1
     9     1    10    1
    10     1     2    1
    11    10    11    1
    12    11    12   ar
    13    11    17   ar
    14    12    13   ar
    15    17    15   ar
    16    13    14   ar
    17    15    14   ar
    18    14    16    1
