@<TRIPOS>MOLECULE
ZINC29011050_replica-1.pdb
 23 23 0 0 0
SMALL
GASTEIGER

@<TRIPOS>ATOM
      1  N1         7.5770   35.8530   58.6330 N.am    0  <0>0       -0.3022
      2  C11        7.2730   35.0410   57.6020 C.2     0  <0>0        0.2227
      3  O1         8.0390   34.9370   56.6670 O.2     0  <0>0       -0.2751
      4  H13        6.8850   35.9440   59.4830 H       0  <0>0        0.1497
      5  C4         8.8300   36.6140   58.6240 C.3     0  <0>0        0.0940
      6  C2         8.5200   38.1060   58.7540 C.3     0  <0>0        0.0222
      7  C1         8.5990   38.7640   57.3750 C.3     0  <0>0        0.0020
      8  C3         7.1120   38.2870   59.3250 C.3     0  <0>0        0.0020
      9  C5         9.6920   36.1760   59.7800 C.ar    0  <0>0       -0.0044
     10  C10        9.8760   37.0180   60.8610 C.ar    0  <0>0       -0.0004
     11  C9        10.6660   36.6180   61.9220 C.ar    0  <0>0        0.0294
     12  C8        11.2730   35.3740   61.9020 C.ar    0  <0>0        0.1401
     13  C7        11.0880   34.5320   60.8190 C.ar    0  <0>0        0.0294
     14  F1        12.0450   34.9820   62.9390 F       0  <0>0       -0.2042
     15  C6        10.2930   34.9310   59.7610 C.ar    0  <0>0       -0.0004
     16  C12        5.9820   34.2640   57.6080 C.3     0  <0>0        0.0856
     17  C13        4.8680   35.1200   57.0030 C.3     0  <0>0        0.0194
     18  C14        3.9540   35.6300   58.1190 C.3     0  <0>0        0.0011
     19  C15        5.4830   36.3110   56.2640 C.3     0  <0>0        0.0011
     20  C16        4.0530   34.2760   56.0220 C.3     0  <0>0        0.1145
     21  C17        4.8270   34.1090   54.7380 C.2     0  <0>0        0.3649
     22  O2         5.7770   33.3650   54.7000 O.co2   0  <0>0       -0.2457
     23  O3         4.4620   34.7890   53.6410 O.co2   0  <0>0       -0.2457
@<TRIPOS>BOND
     1    23    21   ar
     2    22    21   ar
     3    21    20    1
     4    20    17    1
     5    19    17    1
     6     3     2    2
     7    17    16    1
     8    17    18    1
     9     7     6    1
    10     2    16    1
    11     2     1   am
    12     5     1    1
    13     5     6    1
    14     5     9    1
    15     1     4    1
    16     6     8    1
    17    15     9   ar
    18    15    13   ar
    19     9    10   ar
    20    13    12   ar
    21    10    11   ar
    22    12    11   ar
    23    12    14    1
