@<TRIPOS>MOLECULE
ZINC58011212_replica-1.pdb
 20 21 0 0 0
SMALL
GASTEIGER

@<TRIPOS>ATOM
      1  N1         9.5140   35.6790   60.2950 N.ar    0  <0>0       -0.3285
      2  C9        10.5030   36.2550   61.0260 C.ar    0  <0>0        0.0758
      3  C10       11.1570   35.2740   61.7280 C.ar    0  <0>0        0.0187
      4  C11       12.2760   35.2480   62.6640 C.ar    0  <0>0        0.0017
      5  C12       12.6750   34.0670   63.1850 C.ar    0  <0>0        0.0066
      6  C13       12.0060   32.8220   62.8260 C.ar    0  <0>0        0.0798
      7  C14       10.9430   32.8060   61.9430 C.ar    0  <0>0        0.0081
      8  C15       10.4870   34.0060   61.3730 C.ar    0  <0>0        0.0189
      9  C16        9.4820   34.3470   60.4890 C.ar    0  <0>0        0.0758
     10  C6         8.5980   36.4100   59.4160 C.3     0  <0>0        0.0685
     11  C7         8.8360   37.9140   59.5690 C.3     0  <0>0        0.0226
     12  C8         7.1530   36.0810   59.7960 C.3     0  <0>0        0.0226
     13  C5         8.8500   36.0000   57.9640 C.3     0  <0>0        0.0208
     14  C2         7.9820   36.8500   57.0350 C.3     0  <0>0        0.0017
     15  C1         6.5120   36.6990   57.4310 C.3     0  <0>0        0.0001
     16  C3         8.1720   36.3840   55.5910 C.3     0  <0>0        0.0001
     17  C4         8.3930   38.3200   57.1550 C.3     0  <0>0        0.0001
     18  C17       12.4720   31.5580   63.4140 C.2     0  <0>0        0.3878
     19  O1        11.6650   30.6820   63.7000 O.co2   0  <0>0       -0.2406
     20  O2        13.6650   31.3810   63.6190 O.co2   0  <0>0       -0.2406
@<TRIPOS>BOND
     1    16    14    1
     2    14    17    1
     3    14    15    1
     4    14    13    1
     5    13    10    1
     6    10    11    1
     7    10    12    1
     8    10     1    1
     9     1     9   ar
    10     1     2   ar
    11     9     8   ar
    12     2     3   ar
    13     8     3   ar
    14     8     7   ar
    15     3     4   ar
    16     7     6   ar
    17     4     5   ar
    18     6     5   ar
    19     6    18    1
    20    18    20   ar
    21    18    19   ar
