@<TRIPOS>MOLECULE
ZINC01794012_replica-1.pdb
 29 31 0 0 0
SMALL
GASTEIGER

@<TRIPOS>ATOM
      1  C10        1.8030   33.0110   56.5190 C.2     0  <0>0        0.1791
      2  N1         2.8410   32.2530   56.7540 N.2     0  <0>0       -0.3869
      3  C11        4.0600   32.7740   56.8480 C.2     0  <0>0        0.1515
      4  C12        4.2960   34.1510   56.7010 C.3     0  <0>0        0.1554
      5  C13        5.6860   34.5760   56.8300 C.2     0  <0>0       -0.0219
      6  C14        6.6030   33.6140   57.0750 C.2     0  <0>0        0.0319
      7  S1         5.6780   32.1070   57.1490 S.3     0  <0>0       -0.0615
      8  C15        8.0770   33.8180   57.2450 C.3     0  <0>0        0.1744
      9  O1         8.3110   35.2250   57.4180 O.3     0  <0>0       -0.3506
     10  C16        7.6460   36.0380   56.4480 C.3     0  <0>0        0.1197
     11  C17        6.1350   36.0290   56.6990 C.3     0  <0>0        0.0527
     12  C21        3.1360   34.9540   56.4440 C.2     0  <0>0        0.2547
     13  O2         3.2360   36.1600   56.3020 O.2     0  <0>0       -0.2724
     14  N2         1.9350   34.3520   56.3570 N.am    0  <0>0       -0.1816
     15  C9         0.4360   32.3840   56.4180 C.3     0  <0>0        0.0765
     16  C8         0.4960   31.1760   55.4800 C.3     0  <0>0        0.0089
     17  C7        -0.7070   31.2060   54.5340 C.3     0  <0>0        0.0005
     18  C6        -1.1680   29.7750   54.2510 C.3     0  <0>0        0.0000
     19  C5         0.0120   28.8160   54.4220 C.3     0  <0>0        0.0000
     20  C4        -0.2160   27.5700   53.5640 C.3     0  <0>0        0.0000
     21  C3        -1.1940   27.9000   52.4350 C.3     0  <0>0        0.0000
     22  C2        -1.2120   26.7520   51.4230 C.3     0  <0>0        0.0000
     23  C1        -0.6410   25.4900   52.0740 C.3     0  <0>0        0.0000
     24  N3         0.8250   35.1080   56.1070 N.3     0  <0>0       -0.2451
     25  H32        1.0490   36.0920   56.1140 H       0  <0>0        0.1411
     26  H33        0.3950   34.8420   55.2340 H       0  <0>0        0.1411
     27  C18        8.1660   37.4740   56.5470 C.3     0  <0>0        0.0276
     28  C19        7.2110   38.4140   55.8100 C.3     0  <0>0        0.0025
     29  C20        8.2520   37.8840   58.0180 C.3     0  <0>0        0.0025
@<TRIPOS>BOND
     1    22    23    1
     2    22    21    1
     3    21    20    1
     4    20    19    1
     5    18    19    1
     6    18    17    1
     7    17    16    1
     8    26    24    1
     9    16    15    1
    10    28    27    1
    11    24    25    1
    12    24    14    1
    13    13    12    2
    14    14    12   am
    15    14     1    1
    16    15     1    1
    17    12     4    1
    18    10    27    1
    19    10    11    1
    20    10     9    1
    21     1     2    2
    22    27    29    1
    23    11     5    1
    24     4     5    1
    25     4     3    1
    26     2     3    2
    27     5     6    2
    28     3     7    1
    29     6     7    1
    30     6     8    1
    31     8     9    1
