@<TRIPOS>MOLECULE
ZINC20753297_replica-1.pdb
 39 45 0 0 0
SMALL
GASTEIGER

@<TRIPOS>ATOM
      1  C7         2.4750   32.5330   58.4090 C.ar    0  <0>0        0.1249
      2  C8         2.4520   33.2250   59.6050 C.ar    0  <0>0        0.0214
      3  C9         3.6320   33.6190   60.2020 C.ar    0  <0>0        0.0154
      4  C10        4.8520   33.3200   59.6070 C.ar    0  <0>0        0.0408
      5  C11        4.8680   32.6120   58.4010 C.ar    0  <0>0       -0.0080
      6  C12        3.6830   32.2300   57.8090 C.ar    0  <0>0        0.0171
      7  C13        6.1880   32.2940   57.8120 C.3     0  <0>0        0.0255
      8  C14        6.3680   32.0870   56.3530 C.3     0  <0>0        0.0045
      9  C15        7.5880   32.4850   56.0140 C.3     0  <0>0        0.0004
     10  C16        8.3190   33.0300   57.2420 C.3     0  <0>0        0.0023
     11  C17        7.1480   33.4810   58.1240 C.3     0  <0>0        0.0262
     12  C18        7.3580   33.4470   59.6280 C.3     0  <0>0        0.0921
     13  N2         6.0360   33.7460   60.2210 N.pl3   0  <0>0       -0.3308
     14  H17        5.9710   34.3130   61.1620 H       0  <0>0        0.1471
     15  C19        8.3610   34.4950   60.0370 C.ar    0  <0>0       -0.0046
     16  C28        8.1880   35.8220   59.6440 C.ar    0  <0>0       -0.0024
     17  C27        9.1650   36.8410   60.0420 C.ar    0  <0>0       -0.0003
     18  C29        7.0800   36.2130   58.8630 C.ar    0  <0>0       -0.0003
     19  C26       10.2710   36.4900   60.8130 C.ar    0  <0>0       -0.0000
     20  C32        8.9590   38.1750   59.6270 C.ar    0  <0>0       -0.0000
     21  C25       10.4440   35.1630   61.2050 C.ar    0  <0>0       -0.0003
     22  C20        9.4640   34.1450   60.8120 C.ar    0  <0>0       -0.0024
     23  C24       11.5520   34.7730   61.9870 C.ar    0  <0>0       -0.0000
     24  C21        9.6730   32.8110   61.2230 C.ar    0  <0>0       -0.0003
     25  C22       10.7610   32.5020   61.9740 C.ar    0  <0>0       -0.0000
     26  C23       11.6900   33.4730   62.3510 C.ar    0  <0>0       -0.0000
     27  C31        7.8720   38.4830   58.8770 C.ar    0  <0>0       -0.0000
     28  C30        6.9430   37.5130   58.4980 C.ar    0  <0>0       -0.0000
     29  S1         0.9650   32.0390   57.6480 S.O2    0  <0>0        0.0736
     30  O1         0.3450   31.1170   58.5350 O.2     0  <0>0       -0.1499
     31  O2         0.3200   33.2280   57.2130 O.2     0  <0>0       -0.1499
     32  N1         1.3600   31.1890   56.2820 N.pl3   0  <0>0       -0.2150
     33  H9         2.4040   31.1580   55.9370 H       0  <0>0        0.1737
     34  C4         0.3680   30.5130   55.5680 C.ar    0  <0>0        0.0648
     35  C3        -0.4770   31.2160   54.7160 C.ar    0  <0>0        0.0159
     36  C2        -1.4570   30.5450   54.0110 C.ar    0  <0>0        0.0013
     37  C1        -1.5980   29.1760   54.1520 C.ar    0  <0>0        0.0001
     38  C6        -0.7600   28.4750   54.9990 C.ar    0  <0>0        0.0013
     39  C5         0.2260   29.1380   55.7020 C.ar    0  <0>0        0.0159
@<TRIPOS>BOND
     1    36    37   ar
     2    36    35   ar
     3    37    38   ar
     4    35    34   ar
     5    38    39   ar
     6    34    39   ar
     7    34    32    1
     8    33    32    1
     9     9     8    1
    10     9    10    1
    11    32    29    1
    12     8     7    1
    13    31    29    2
    14    10    11    1
    15    29     1    1
    16    29    30    2
    17     6     5   ar
    18     6     1   ar
    19     7    11    1
    20     7     5    1
    21    11    12    1
    22     5     4   ar
    23     1     2   ar
    24    28    18   ar
    25    28    27   ar
    26    18    16   ar
    27    27    20   ar
    28     2     3   ar
    29     4     3   ar
    30     4    13    1
    31    20    17   ar
    32    12    15    1
    33    12    13    1
    34    16    15   ar
    35    16    17   ar
    36    15    22   ar
    37    17    19   ar
    38    13    14    1
    39    22    21   ar
    40    22    24   ar
    41    19    21   ar
    42    21    23   ar
    43    24    25   ar
    44    25    26   ar
    45    23    26   ar
