@<TRIPOS>MOLECULE
ZINC07606425_replica-1.pdb
 31 34 0 0 0
SMALL
GASTEIGER

@<TRIPOS>ATOM
      1  N1         6.0140   35.1310   59.2930 N.am    0  <0>0       -0.3003
      2  C15        5.2130   34.0570   59.4450 C.2     0  <0>0        0.2018
      3  O2         5.5650   32.9750   59.0280 O.2     0  <0>0       -0.2774
      4  H15        5.7330   35.9970   59.6280 H       0  <0>0        0.1499
      5  C8         7.3100   34.9890   58.6240 C.3     0  <0>0        0.1168
      6  C5         8.4140   35.3330   59.5900 C.ar    0  <0>0       -0.0001
      7  C4         8.1720   36.2100   60.6310 C.ar    0  <0>0        0.0008
      8  C3         9.1820   36.5280   61.5180 C.ar    0  <0>0        0.0366
      9  C2        10.4400   35.9640   61.3650 C.ar    0  <0>0        0.1387
     10  C7        10.6810   35.0830   60.3200 C.ar    0  <0>0        0.0366
     11  C6         9.6660   34.7660   59.4390 C.ar    0  <0>0        0.0008
     12  O1        11.4360   36.2740   62.2370 O.3     0  <0>0       -0.4714
     13  C1        12.2710   35.2010   62.6760 C.3     0  <0>0        0.2525
     14  C9         7.3680   35.9200   57.4410 C.ar    0  <0>0       -0.0003
     15  C14        7.1180   37.2690   57.6100 C.ar    0  <0>0       -0.0024
     16  C13        7.1700   38.1230   56.5250 C.ar    0  <0>0       -0.0003
     17  C12        7.4740   37.6290   55.2700 C.ar    0  <0>0       -0.0000
     18  C11        7.7250   36.2800   55.1010 C.ar    0  <0>0       -0.0003
     19  C10        7.6770   35.4260   56.1870 C.ar    0  <0>0       -0.0024
     20  C16        3.8810   34.2040   60.1340 C.3     0  <0>0        0.0105
     21  N2         2.8030   33.7550   59.2140 N.4     0  <0>0        0.3970
     22  C17        1.7050   33.1420   59.9790 C.3     0  <0>0       -0.0762
     23  C18        0.4200   33.9220   59.6320 C.3     0  <0>0       -0.0245
     24  C19        0.7670   34.5820   58.2710 C.3     0  <0>0       -0.0182
     25  C20        2.2700   34.9050   58.4560 C.3     0  <0>0       -0.0278
     26  H27        3.1870   33.0650   58.5590 H       0  <0>0       -0.0784
     27  C21        2.9540   35.0030   57.1160 C.ar    0  <0>0       -0.0120
     28  S1         3.2810   33.7130   55.9250 S.2     0  <0>0       -0.0928
     29  C24        4.0960   34.7130   54.6900 C.ar    0  <0>0        0.0351
     30  C23        4.0710   35.9420   55.2630 C.ar    0  <0>0        0.0071
     31  C22        3.4860   36.0900   56.5060 C.ar    0  <0>0        0.0007
@<TRIPOS>BOND
     1    29    30   ar
     2    29    28   ar
     3    18    17   ar
     4    18    19   ar
     5    30    31   ar
     6    17    16   ar
     7    28    27   ar
     8    19    14   ar
     9    31    27   ar
    10    16    15   ar
    11    27    25    1
    12    14    15   ar
    13    14     5    1
    14    24    25    1
    15    24    23    1
    16    25    21    1
    17    26    21    1
    18     5     1    1
    19     5     6    1
    20     3     2    2
    21    21    22    1
    22    21    20    1
    23     1     2   am
    24     1     4    1
    25    11     6   ar
    26    11    10   ar
    27     2    20    1
    28     6     7   ar
    29    23    22    1
    30    10     9   ar
    31     7     8   ar
    32     9     8   ar
    33     9    12    1
    34    12    13    1
