@<TRIPOS>MOLECULE
ZINC00509134_replica-1.pdb
 25 26 0 0 0
SMALL
GASTEIGER

@<TRIPOS>ATOM
      1  N2         0.7730   30.3220   55.4790 N.am    0  <0>0       -0.2028
      2  C9        -0.0040   31.3460   55.8830 C.2     0  <0>0        0.2856
      3  O1        -1.0400   31.5880   55.2990 O.2     0  <0>0       -0.2693
      4  H9         1.6010   30.1290   55.9460 H       0  <0>0        0.1774
      5  C10        0.4120   32.1910   57.0580 C.3     0  <0>0        0.2911
      6  O2         0.7120   33.5150   56.6120 O.3     0  <0>0       -0.4656
      7  C11        1.9080   34.0390   56.9920 C.ar    0  <0>0        0.1393
      8  C16        3.0870   33.5190   56.4800 C.ar    0  <0>0        0.0366
      9  C15        4.3010   34.0520   56.8680 C.ar    0  <0>0       -0.0012
     10  C14        4.3400   35.1040   57.7650 C.ar    0  <0>0       -0.0226
     11  C13        3.1660   35.6230   58.2770 C.ar    0  <0>0       -0.0012
     12  C12        1.9490   35.0970   57.8880 C.ar    0  <0>0        0.0366
     13  C17        5.6660   35.6830   58.1870 C.3     0  <0>0        0.0189
     14  C18        6.6280   34.5480   58.5420 C.3     0  <0>0        0.0044
     15  C19        6.2500   36.5080   57.0380 C.3     0  <0>0        0.0044
     16  C20        5.4650   36.5820   59.4090 C.3     0  <0>0        0.0044
     17  N1         0.3850   29.5360   54.3870 N.2     0  <0>0       -0.1775
     18  C8        -0.0300   28.3210   54.5770 C.2     0  <0>0        0.1173
     19  C7        -0.4390   27.4930   53.4270 C.ar    0  <0>0        0.0167
     20  C2        -0.1090   26.1370   53.3860 C.ar    0  <0>0       -0.0203
     21  C1         0.6680   25.5140   54.5170 C.3     0  <0>0        0.0311
     22  C3        -0.4900   25.3700   52.3040 C.ar    0  <0>0       -0.0042
     23  C4        -1.2030   25.9400   51.2650 C.ar    0  <0>0       -0.0003
     24  C5        -1.5390   27.2820   51.3020 C.ar    0  <0>0        0.0000
     25  C6        -1.1640   28.0610   52.3760 C.ar    0  <0>0        0.0013
@<TRIPOS>BOND
     1    23    24   ar
     2    23    22   ar
     3    24    25   ar
     4    22    20   ar
     5    25    19   ar
     6    20    19   ar
     7    20    21    1
     8    19    18    1
     9    17    18    2
    10    17     1    1
    11     3     2    2
    12     1     2   am
    13     1     4    1
    14     2     5    1
    15     8     9   ar
    16     8     7   ar
    17     6     7    1
    18     6     5    1
    19     9    10   ar
    20     7    12   ar
    21    15    13    1
    22    10    13    1
    23    10    11   ar
    24    12    11   ar
    25    13    14    1
    26    13    16    1
