@<TRIPOS>MOLECULE
ZINC37936104_replica-1.pdb
 22 24 0 0 0
SMALL
GASTEIGER

@<TRIPOS>ATOM
      1  C1        10.4250   36.0210   60.7540 C.ar    0  <0>0       -0.0003
      2  C2        10.3210   34.8780   59.9820 C.ar    0  <0>0       -0.0003
      3  C3         9.4550   34.8470   58.9030 C.ar    0  <0>0       -0.0020
      4  C4         8.6980   35.9660   58.6020 C.ar    0  <0>0        0.0031
      5  C5         8.8020   37.0980   59.3670 C.ar    0  <0>0       -0.0237
      6  C6         9.6660   37.1360   60.4470 C.ar    0  <0>0       -0.0045
      7  C7         7.9690   38.3190   59.0340 C.3     0  <0>0        0.0261
      8  C8         8.5090   38.9350   57.7410 C.3     0  <0>0        0.0048
      9  C9         7.8930   38.2700   56.5260 C.3     0  <0>0        0.0034
     10  C10        8.3160   36.8290   56.3190 C.3     0  <0>0        0.0369
     11  C11        7.7500   35.9290   57.4220 C.3     0  <0>0        0.1533
     12  C12        7.6350   34.5490   56.9220 C.1     0  <0>0        0.0939
     13  N1         7.5450   33.4840   56.5380 N.1     0  <0>0       -0.1939
     14  N2         6.4330   36.4210   57.8310 N.pl3   0  <0>0       -0.3214
     15  H13        6.1640   37.3270   57.6100 H       0  <0>0        0.1479
     16  C13        5.5650   35.5880   58.5400 C.ar    0  <0>0        0.0455
     17  C18        4.4210   35.0900   57.9270 C.ar    0  <0>0        0.0152
     18  C17        3.5680   34.2620   58.6290 C.ar    0  <0>0        0.0127
     19  C16        3.8440   33.9370   59.9460 C.ar    0  <0>0        0.0578
     20  C15        4.9780   34.4370   60.5610 C.ar    0  <0>0        0.0127
     21 Cl          2.7650   32.9010   60.8270 Cl      0  <0>0       -0.0822
     22  C14        5.8390   35.2600   59.8610 C.ar    0  <0>0        0.0152
@<TRIPOS>BOND
     1    10     9    1
     2    10    11    1
     3     9     8    1
     4    13    12    3
     5    12    11    1
     6    11    14    1
     7    11     4    1
     8    15    14    1
     9     8     7    1
    10    14    16    1
    11    17    16   ar
    12    17    18   ar
    13    16    22   ar
    14     4     3   ar
    15     4     5   ar
    16    18    19   ar
    17     3     2   ar
    18     7     5    1
    19     5     6   ar
    20    22    20   ar
    21    19    20   ar
    22    19    21    1
    23     2     1   ar
    24     6     1   ar
