@<TRIPOS>MOLECULE
ZINC67333435_replica-1.pdb
 26 29 0 0 0
SMALL
GASTEIGER

@<TRIPOS>ATOM
      1  C8         0.3660   31.3210   56.1300 C.2     0  <0>0        0.2513
      2  O1        -0.8100   31.6320   56.1150 O.2     0  <0>0       -0.2696
      3  N3         0.7660   30.1680   55.5570 N.am    0  <0>0       -0.3018
      4  H6         1.7040   29.9210   55.5690 H       0  <0>0        0.1497
      5  C7         1.3520   32.2040   56.7710 C.2     0  <0>0        0.0777
      6  C2         1.5790   32.3960   58.0980 C.2     0  <0>0       -0.0203
      7  C1         0.7630   31.6490   59.1200 C.3     0  <0>0        0.0279
      8  C3         2.5820   33.2870   58.5120 C.3     0  <0>0        0.1274
      9  C6         3.2910   33.9370   57.4680 C.2     0  <0>0        0.1603
     10  C4         2.9900   33.6330   59.8250 C.2     0  <0>0        0.1098
     11  N2         4.2530   34.7970   57.7240 N.2     0  <0>0       -0.3408
     12  S1         2.5410   33.2870   55.9990 S.3     0  <0>0       -0.0542
     13  C5         4.5820   35.0740   58.9710 C.1     0  <0>0        0.1139
     14  N1         3.9620   34.5020   59.9900 N.2     0  <0>0       -0.3515
     15  C18        5.6880   36.0610   59.2410 C.3     0  <0>0        0.1428
     16  C19        2.3140   33.0110   61.0200 C.3     0  <0>0        0.0633
     17  C9        -0.2170   29.2890   54.9180 C.3     0  <0>0        0.0763
     18  C11        0.1950   27.8370   54.6660 C.3     0  <0>0        0.0420
     19  C10       -0.8170   28.1660   55.7660 C.3     0  <0>0        0.0259
     20  C12       -0.3270   27.1720   53.4180 C.ar    0  <0>0       -0.0186
     21  C17       -0.1070   25.8240   53.2110 C.ar    0  <0>0        0.0254
     22  C16       -0.5910   25.2110   52.0670 C.ar    0  <0>0        0.1398
     23  C15       -1.2850   25.9540   51.1270 C.ar    0  <0>0        0.0296
     24  F1        -0.3820   23.8920   51.8670 F       0  <0>0       -0.2042
     25  C14       -1.4990   27.3040   51.3340 C.ar    0  <0>0        0.0020
     26  C13       -1.0200   27.9130   52.4790 C.ar    0  <0>0       -0.0041
@<TRIPOS>BOND
     1    23    25   ar
     2    23    22   ar
     3    25    26   ar
     4    24    22    1
     5    22    21   ar
     6    26    20   ar
     7    21    20   ar
     8    20    18    1
     9    18    17    1
    10    18    19    1
    11    17     3    1
    12    17    19    1
    13     3     4    1
    14     3     1   am
    15    12     5    1
    16    12     9    1
    17     2     1    2
    18     1     5    1
    19     5     6    2
    20     9    11    2
    21     9     8    1
    22    11    13    2
    23     6     8    1
    24     6     7    1
    25     8    10    1
    26    13    15    1
    27    13    14    2
    28    10    14    2
    29    10    16    1
