@<TRIPOS>MOLECULE
ZINC35564367_replica-1.pdb
 26 29 0 0 0
SMALL
GASTEIGER

@<TRIPOS>ATOM
      1  C4         1.9830   32.2390   56.5870 C.1     0  <0>0        0.1366
      2  N1         1.0670   31.7210   55.7810 N.2     0  <0>0       -0.3236
      3  C5         0.2070   30.8280   56.2610 C.ar    0  <0>0        0.2270
      4  C6         0.3080   30.4650   57.6210 C.ar    0  <0>0        0.1522
      5  C7        -0.7540   29.4750   57.8650 C.ar    0  <0>0        0.0399
      6  C8        -1.1580   28.7580   58.9890 C.ar    0  <0>0        0.0098
      7  C9        -2.2200   27.8810   58.8970 C.ar    0  <0>0        0.0347
      8  C10       -2.8830   27.7120   57.6910 C.ar    0  <0>0        0.0082
      9  C11       -2.4920   28.4150   56.5720 C.ar    0  <0>0        0.0178
     10  C12       -1.4250   29.3040   56.6440 C.ar    0  <0>0        0.0639
     11  N2        -0.8300   30.1250   55.7000 N.ar    0  <0>0       -0.2968
     12 Br         -2.7700   26.9060   60.4210 Br      0  <0>0       -0.0490
     13  N3         1.2470   31.0190   58.3740 N.2     0  <0>0       -0.1336
     14  N4         2.0610   31.8780   57.8640 N.2     0  <0>0       -0.0753
     15  C13       -1.2490   30.2290   54.3000 C.3     0  <0>0        0.1352
     16  C14       -0.9980   28.9170   53.6020 C.ar    0  <0>0        0.0006
     17  C19       -0.1520   27.9840   54.1710 C.ar    0  <0>0       -0.0001
     18  C18        0.0740   26.7770   53.5350 C.ar    0  <0>0        0.0294
     19  C17       -0.5390   26.5080   52.3230 C.ar    0  <0>0        0.1401
     20  C16       -1.3830   27.4470   51.7520 C.ar    0  <0>0        0.0294
     21  F1        -0.3140   25.3320   51.6980 F       0  <0>0       -0.2042
     22  C15       -1.6110   28.6500   52.3930 C.ar    0  <0>0       -0.0001
     23  S1         3.1220   33.4250   55.9530 S.3     0  <0>0       -0.0242
     24  C3         2.3590   35.0220   56.3460 C.3     0  <0>0        0.0994
     25  C2         3.1760   35.7230   57.4020 C.2     0  <0>0       -0.0134
     26  C1         2.6200   36.0710   58.5360 C.2     0  <0>0       -0.0040
@<TRIPOS>BOND
     1    21    19    1
     2    20    19   ar
     3    20    22   ar
     4    19    18   ar
     5    22    16   ar
     6    18    17   ar
     7    16    17   ar
     8    16    15    1
     9    15    11    1
    10    11     3   ar
    11    11    10   ar
    12     2     3    2
    13     2     1    2
    14    23    24    1
    15    23     1    1
    16     3     4   ar
    17    24    25    1
    18     9    10   ar
    19     9     8   ar
    20     1    14    2
    21    10     5   ar
    22    25    26    2
    23     4     5   ar
    24     4    13    2
    25     8     7   ar
    26    14    13    1
    27     5     6   ar
    28     7     6   ar
    29     7    12    1
