@<TRIPOS>MOLECULE
ZINC01030057_replica-1.pdb
 28 31 0 0 0
SMALL
GASTEIGER

@<TRIPOS>ATOM
      1  C7        10.3890   35.5390   60.3780 C.2     0  <0>0        0.3169
      2  N1        11.0740   34.4520   60.6860 N.2     0  <0>0       -0.3085
      3  C8        11.6090   34.6940   61.9010 C.1     0  <0>0        0.1271
      4  N2        11.2250   35.8910   62.2640 N.2     0  <0>0       -0.0068
      5  O1        10.5320   36.3920   61.4050 O.2     0  <0>0       -0.3109
      6  C9        12.4690   33.7710   62.6820 C.ar    0  <0>0        0.0770
      7  C14       12.0830   32.4450   62.8680 C.ar    0  <0>0        0.0149
      8  C13       12.8840   31.5920   63.6000 C.ar    0  <0>0        0.0721
      9  C12       14.0730   32.0480   64.1390 C.ar    0  <0>0        0.0077
     10  C11       14.4640   33.3620   63.9520 C.ar    0  <0>0        0.0721
     11  C10       13.6680   34.2240   63.2270 C.ar    0  <0>0        0.0149
     12  C15       12.4650   30.1590   63.8060 C.3     0  <0>0        0.4186
     13  F1        13.0250   29.3600   62.8040 F       0  <0>0       -0.1659
     14  F2        11.0690   30.0690   63.7490 F       0  <0>0       -0.1659
     15  F3        12.9110   29.7180   65.0570 F       0  <0>0       -0.1659
     16  C16       15.7620   33.8510   64.5430 C.3     0  <0>0        0.4186
     17  F4        16.6610   34.1470   63.5130 F       0  <0>0       -0.1659
     18  F5        15.5240   35.0040   65.3000 F       0  <0>0       -0.1659
     19  F6        16.3040   32.8580   65.3650 F       0  <0>0       -0.1659
     20  C6         9.6160   35.7710   59.1420 C.ar    0  <0>0        0.0691
     21  C1         9.2750   34.7000   58.3130 C.ar    0  <0>0        0.0090
     22  C2         8.5520   34.9170   57.1640 C.ar    0  <0>0        0.0368
     23  C3         8.1640   36.2080   56.8070 C.ar    0  <0>0        0.1346
     24  O2         7.4690   36.6380   55.7180 O.3     0  <0>0       -0.4754
     25  C4         8.5050   37.2710   57.6370 C.ar    0  <0>0        0.0157
     26  C18        6.9330   37.9460   55.9830 C.3     0  <0>0        0.2102
     27  C17        7.9380   38.5290   57.0050 C.3     0  <0>0        0.0767
     28  C5         9.2230   37.0650   58.7890 C.ar    0  <0>0        0.0047
@<TRIPOS>BOND
     1    24    26    1
     2    24    23    1
     3    26    27    1
     4    23    22   ar
     5    23    25   ar
     6    27    25    1
     7    22    21   ar
     8    25    28   ar
     9    21    20   ar
    10    28    20   ar
    11    20     1    1
    12     1     2    2
    13     1     5    1
    14     2     3    2
    15     5     4    1
    16     3     4    2
    17     3     6    1
    18     6     7   ar
    19     6    11   ar
    20    13    12    1
    21     7     8   ar
    22    11    10   ar
    23    17    16    1
    24     8    12    1
    25     8     9   ar
    26    14    12    1
    27    12    15    1
    28    10     9   ar
    29    10    16    1
    30    16    18    1
    31    16    19    1
