@<TRIPOS>MOLECULE
ZINC02413003_replica-1.pdb
 27 29 0 0 0
SMALL
GASTEIGER

@<TRIPOS>ATOM
      1  C5        10.2470   35.3350   61.0280 C.1     0  <0>0        0.1692
      2  N1         9.5500   36.4040   60.6650 N.2     0  <0>0       -0.3236
      3  C6         8.5290   36.3270   59.8280 C.2     0  <0>0        0.1806
      4  C7         8.1670   35.0610   59.2860 C.3     0  <0>0        0.1456
      5  C8         7.0910   34.7390   58.3510 C.2     0  <0>0       -0.0227
      6  C9         6.9580   33.4440   57.9890 C.2     0  <0>0        0.0319
      7  S2         8.2400   32.5880   58.8610 S.3     0  <0>0       -0.0606
      8  C10        8.9540   33.9720   59.7110 C.2     0  <0>0        0.1625
      9  N2         9.9560   34.1300   60.5550 N.2     0  <0>0       -0.3319
     10  C11        5.9330   32.8880   57.0500 C.3     0  <0>0        0.1742
     11  O1         4.9270   33.8930   56.8480 O.3     0  <0>0       -0.3529
     12  C12        5.4630   35.1820   56.5400 C.3     0  <0>0        0.0970
     13  C13        6.1360   35.7830   57.7770 C.3     0  <0>0        0.0503
     14  C14        6.4940   35.0470   55.4170 C.3     0  <0>0        0.0300
     15  N3         7.8240   37.4640   59.4790 N.pl3   0  <0>0       -0.3083
     16  H22        6.8700   37.5130   59.6450 H       0  <0>0        0.1490
     17  C17        8.5180   38.5940   58.8560 C.3     0  <0>0        0.1209
     18  C18        8.0530   38.7420   57.4070 C.3     0  <0>0        0.1583
     19  O2         9.1820   38.9900   56.5660 O.3     0  <0>0       -0.3802
     20  H27        9.9970   39.1770   57.0490 H       0  <0>0        0.2105
     21  S1        11.5910   35.5200   62.1520 S.3     0  <0>0       -0.0181
     22  C4        12.0540   33.7850   62.3790 C.3     0  <0>0        0.0744
     23  C3        13.5640   33.6840   62.5970 C.3     0  <0>0        0.0128
     24  C2        13.9050   32.3100   63.1800 C.3     0  <0>0        0.0009
     25  C1        12.6270   31.4800   63.3100 C.3     0  <0>0        0.0000
     26  C15        4.3340   36.1050   56.0790 C.3     0  <0>0        0.0276
     27  C16        3.0400   35.7270   56.8040 C.3     0  <0>0        0.0025
@<TRIPOS>BOND
     1    14    12    1
     2    26    12    1
     3    26    27    1
     4    12    11    1
     5    12    13    1
     6    19    20    1
     7    19    18    1
     8    11    10    1
     9    10     6    1
    10    18    17    1
    11    13     5    1
    12     6     5    2
    13     6     7    1
    14     5     4    1
    15    17    15    1
    16     7     8    1
    17     4     8    1
    18     4     3    1
    19    15    16    1
    20    15     3    1
    21     8     9    2
    22     3     2    2
    23     9     1    2
    24     2     1    2
    25     1    21    1
    26    21    22    1
    27    22    23    1
    28    23    24    1
    29    24    25    1
