@<TRIPOS>MOLECULE
ZINC06395756_replica-1.pdb
 25 29 0 0 0
SMALL
GASTEIGER

@<TRIPOS>ATOM
      1  C1         0.0900   33.4200   57.8480 C.3     0  <0>0        0.0000
      2  C2         0.6080   34.7430   58.4160 C.3     0  <0>0        0.0000
      3  C3         1.7660   34.4650   59.3760 C.3     0  <0>0        0.0001
      4  C4         2.8620   33.6890   58.6410 C.3     0  <0>0        0.0025
      5  C5         3.2990   34.4930   57.4130 C.3     0  <0>0        0.0335
      6  C6         2.1640   34.8970   56.4660 C.3     0  <0>0        0.0025
      7  C7         1.0880   35.6340   57.2700 C.3     0  <0>0        0.0001
      8  C8         4.4650   35.4680   57.5780 C.3     0  <0>0        0.0859
      9  C9         4.6580   34.1670   56.7950 C.3     0  <0>0        0.1643
     10  C10        5.4550   33.1050   57.4280 C.1     0  <0>0        0.0859
     11  N1         6.0710   32.2840   57.9170 N.1     0  <0>0       -0.1949
     12  C11        4.7820   34.2670   55.3310 C.1     0  <0>0        0.0859
     13  N2         4.8770   34.3450   54.2020 N.1     0  <0>0       -0.1949
     14  C12        5.1050   35.5620   58.9390 C.2     0  <0>0        0.1515
     15  O1         4.5010   35.1920   59.9180 O.2     0  <0>0       -0.2960
     16  C13        6.4980   36.1180   59.0800 C.3     0  <0>0        0.0516
     17  C18        7.3410   35.1720   59.9360 C.3     0  <0>0        0.0069
     18  C17        8.7560   35.7370   60.0790 C.3     0  <0>0        0.0004
     19  C16        9.3920   35.8750   58.6950 C.3     0  <0>0        0.0000
     20  C19        8.6910   37.1110   60.7500 C.3     0  <0>0        0.0000
     21  C15        8.5490   36.8220   57.8380 C.3     0  <0>0        0.0004
     22  C14        7.1340   36.2570   57.6950 C.3     0  <0>0        0.0069
     23  C21        8.4840   38.1960   58.5090 C.3     0  <0>0        0.0000
     24  C20        7.8480   38.0570   59.8940 C.3     0  <0>0        0.0004
     25  C22        6.4340   37.4920   59.7510 C.3     0  <0>0        0.0069
@<TRIPOS>BOND
     1    13    12    3
     2    12     9    1
     3     6     7    1
     4     6     5    1
     5     9     5    1
     6     9    10    1
     7     9     8    1
     8     7     2    1
     9     5     8    1
    10     5     4    1
    11    10    11    3
    12     8    14    1
    13    22    21    1
    14    22    16    1
    15    21    23    1
    16    21    19    1
    17     1     2    1
    18     2     3    1
    19    23    24    1
    20     4     3    1
    21    19    18    1
    22    14    16    1
    23    14    15    2
    24    16    25    1
    25    16    17    1
    26    25    24    1
    27    24    20    1
    28    17    18    1
    29    18    20    1
