@<TRIPOS>MOLECULE
ZINC21246281_replica-1.pdb
 37 41 0 0 0
SMALL
GASTEIGER

@<TRIPOS>ATOM
      1  C10        5.4920   35.1470   59.1020 C.3     0  <0>0        0.1215
      2  C11        5.5140   33.8320   59.8410 C.2     0  <0>0        0.0437
      3  C12        4.4740   33.2710   60.4830 C.2     0  <0>0        0.0262
      4  C13        4.6370   31.9430   61.2030 C.3     0  <0>0        0.0458
      5  C14        5.6690   31.0800   60.4780 C.3     0  <0>0        0.0356
      6  C15        6.9950   31.8500   60.4690 C.3     0  <0>0        0.0736
      7  C16        6.7690   33.1810   59.8150 C.2     0  <0>0        0.1722
      8  O2         7.6970   33.7180   59.2430 O.2     0  <0>0       -0.2916
      9  N2         3.2340   33.8170   60.5680 N.pl3   0  <0>0       -0.3150
     10  C25        2.5310   34.3630   59.5000 C.ar    0  <0>0        0.0614
     11  C26        1.3510   33.8100   59.0300 C.ar    0  <0>0        0.0158
     12  C27        0.6760   34.4320   57.9940 C.ar    0  <0>0        0.0014
     13  C28        1.1750   35.5960   57.4370 C.ar    0  <0>0        0.0013
     14  C29        2.3630   36.1400   57.8930 C.ar    0  <0>0        0.0156
     15  C30        3.0520   35.5060   58.9150 C.ar    0  <0>0        0.0586
     16  N3         4.3060   35.9450   59.3300 N.pl3   0  <0>0       -0.3261
     17  H28        2.7110   33.8480   61.5350 H       0  <0>0        0.1520
     18  H33        4.3870   36.9170   59.8400 H       0  <0>0        0.1474
     19  C9         5.6000   34.8670   57.6250 C.ar    0  <0>0        0.0337
     20  C4         6.2060   35.7890   56.7850 C.ar    0  <0>0        0.1362
     21  C5         6.3070   35.5240   55.4260 C.ar    0  <0>0        0.0366
     22  C6         5.7960   34.3500   54.9120 C.ar    0  <0>0        0.0031
     23  C7         5.1920   33.4310   55.7520 C.ar    0  <0>0       -0.0001
     24  C8         5.0940   33.6890   57.1060 C.ar    0  <0>0        0.0007
     25  O1         6.7050   36.9470   57.2920 O.3     0  <0>0       -0.4794
     26  C2         8.1060   37.1750   57.1320 C.3     0  <0>0        0.1661
     27  C1         8.3620   38.6730   56.9540 C.3     0  <0>0        0.0472
     28  C3         8.8480   36.6750   58.3730 C.3     0  <0>0        0.0472
     29  C17        5.8430   29.7730   61.2070 C.ar    0  <0>0       -0.0216
     30  C22        7.0990   29.3830   61.6330 C.ar    0  <0>0       -0.0030
     31  C21        7.2620   28.1850   62.3020 C.ar    0  <0>0        0.0142
     32  C20        6.1620   27.3710   62.5450 C.ar    0  <0>0        0.0479
     33  C19        4.9020   27.7660   62.1140 C.ar    0  <0>0        0.0142
     34  C18        4.7450   28.9680   61.4520 C.ar    0  <0>0       -0.0030
     35  N1         6.3240   26.1600   63.2190 N.pl3   0  <0>0       -0.3041
     36  C23        7.1440   25.0980   62.6320 C.3     0  <0>0        0.1122
     37  C24        5.6740   25.9510   64.5150 C.3     0  <0>0        0.1122
@<TRIPOS>BOND
     1    22    21   ar
     2    22    23   ar
     3    21    20   ar
     4    23    24   ar
     5    20    25    1
     6    20    19   ar
     7    27    26    1
     8    24    19   ar
     9    26    25    1
    10    26    28    1
    11    13    14   ar
    12    13    12   ar
    13    19     1    1
    14    14    15   ar
    15    12    11   ar
    16    15    16    1
    17    15    10   ar
    18    11    10   ar
    19     1    16    1
    20     1     2    1
    21     8     7    2
    22    16    18    1
    23    10     9    1
    24     7     2    1
    25     7     6    1
    26     2     3    2
    27     6     5    1
    28     5     4    1
    29     5    29    1
    30     3     9    1
    31     3     4    1
    32     9    17    1
    33    29    34   ar
    34    29    30   ar
    35    34    33   ar
    36    30    31   ar
    37    33    32   ar
    38    31    32   ar
    39    32    35    1
    40    36    35    1
    41    35    37    1
