@<TRIPOS>MOLECULE
ZINC41588585_replica-1.pdb
 31 35 0 0 0
SMALL
GASTEIGER

@<TRIPOS>ATOM
      1  C1         6.0090   32.9210   61.1210 C.3     0  <0>0        0.0374
      2  C2         5.6770   34.2100   60.4140 C.ar    0  <0>0        0.0465
      3  C3         4.4340   34.3720   59.8190 C.ar    0  <0>0        0.1366
      4  C4         4.1150   35.5580   59.1650 C.ar    0  <0>0        0.0280
      5  C5         5.0300   36.5740   59.1020 C.ar    0  <0>0        0.0064
      6  C6         6.2820   36.4230   59.6960 C.ar    0  <0>0        0.0762
      7  C7         6.6130   35.2340   60.3670 C.ar    0  <0>0        0.1474
      8  O1         7.8650   35.3260   60.8640 O.3     0  <0>0       -0.4504
      9  C8         8.4330   36.5220   60.5810 C.2     0  <0>0        0.1840
     10  C9         9.6860   36.9240   60.9400 C.2     0  <0>0        0.0408
     11  C18        7.4620   37.3020   59.8050 C.2     0  <0>0        0.2327
     12  O2         7.5940   38.4300   59.3620 O.2     0  <0>0       -0.2832
     13  C19        2.7660   35.7450   58.5210 C.3     0  <0>0        0.1051
     14  N1         2.1190   34.4370   58.3410 N.3     0  <0>0       -0.2313
     15  C20        2.1720   33.6690   59.5960 C.3     0  <0>0        0.2848
     16  O3         3.5350   33.3540   59.8820 O.3     0  <0>0       -0.4586
     17  C10       10.5190   36.0590   61.6760 C.2     0  <0>0        0.0032
     18  C11       11.0610   34.9700   61.0800 C.2     0  <0>0        0.0001
     19  C12       11.9310   34.0680   61.8490 C.ar    0  <0>0        0.0000
     20  C17       11.4070   32.9000   62.4160 C.ar    0  <0>0        0.0000
     21  C16       12.2310   32.0560   63.1300 C.ar    0  <0>0        0.0000
     22  C15       13.5690   32.3670   63.2980 C.ar    0  <0>0        0.0000
     23  C14       14.0930   33.5240   62.7460 C.ar    0  <0>0        0.0000
     24  C13       13.2850   34.3750   62.0230 C.ar    0  <0>0        0.0000
     25  C21        0.7350   34.5930   57.8760 C.3     0  <0>0        0.0810
     26  C22       -0.0870   33.3760   58.3050 C.3     0  <0>0        0.0504
     27  C23       -0.1410   32.3820   57.1740 C.ar    0  <0>0        0.0087
     28  S1         1.1430   31.9120   56.0260 S.2     0  <0>0       -0.0907
     29  C26        0.2110   30.7210   55.0770 C.ar    0  <0>0        0.0351
     30  C25       -1.0010   30.7650   55.6850 C.ar    0  <0>0        0.0072
     31  C24       -1.1810   31.6170   56.7590 C.ar    0  <0>0        0.0027
@<TRIPOS>BOND
     1    29    30   ar
     2    29    28   ar
     3    30    31   ar
     4    28    27   ar
     5    31    27   ar
     6    27    26    1
     7    25    26    1
     8    25    14    1
     9    14    13    1
    10    14    15    1
    11    13     4    1
    12     5     4   ar
    13     5     6   ar
    14     4     3   ar
    15    12    11    2
    16    15    16    1
    17     6    11    1
    18     6     7   ar
    19    11     9    1
    20     3    16    1
    21     3     2   ar
    22     7     2   ar
    23     7     8    1
    24     2     1    1
    25     9     8    1
    26     9    10    2
    27    10    17    1
    28    18    17    2
    29    18    19    1
    30    19    24   ar
    31    19    20   ar
    32    24    23   ar
    33    20    21   ar
    34    23    22   ar
    35    21    22   ar
