@<TRIPOS>MOLECULE
ZINC58450275_replica-1.pdb
 28 31 0 0 0
SMALL
GASTEIGER

@<TRIPOS>ATOM
      1  C1         8.5450   31.8730   58.0130 C.3     0  <0>0        0.0626
      2  C2         7.4450   32.5030   58.8270 C.2     0  <0>0        0.1027
      3  C3         7.8190   33.4570   59.9250 C.3     0  <0>0        0.0787
      4  C4         6.7550   34.5460   60.1020 C.3     0  <0>0        0.1382
      5  N1         5.4400   33.9120   60.0090 N.pl3   0  <0>0       -0.1223
      6  C5         5.2180   32.7920   59.2670 C.1     0  <0>0        0.2318
      7  N2         3.9550   32.4750   59.3960 N.2     0  <0>0       -0.2669
      8  C6         3.3510   33.3570   60.1950 C.1     0  <0>0        0.1886
      9  N3         4.2240   34.2540   60.5900 N.2     0  <0>0       -0.0974
     10  N4         6.2180   32.2000   58.5480 N.2     0  <0>0       -0.3352
     11  C14        9.1570   34.1160   59.5810 C.3     0  <0>0        0.0351
     12  C15       10.1280   33.9000   60.7130 C.ar    0  <0>0       -0.0217
     13  C20       10.0980   32.7220   61.4350 C.ar    0  <0>0       -0.0043
     14  C19       10.9920   32.5240   62.4710 C.ar    0  <0>0       -0.0003
     15  C18       11.9100   33.5070   62.7910 C.ar    0  <0>0       -0.0000
     16  C17       11.9360   34.6880   62.0720 C.ar    0  <0>0       -0.0003
     17  C16       11.0450   34.8840   61.0330 C.ar    0  <0>0       -0.0043
     18  C8         6.9000   35.5810   59.0160 C.ar    0  <0>0       -0.0011
     19  C13        7.7620   36.6480   59.1900 C.ar    0  <0>0       -0.0017
     20  C12        7.8990   37.5950   58.1930 C.ar    0  <0>0        0.0111
     21  C11        7.1660   37.4810   57.0240 C.ar    0  <0>0        0.0577
     22  C10        6.3000   36.4160   56.8540 C.ar    0  <0>0        0.0111
     23 Cl          7.3340   38.6730   55.7730 Cl      0  <0>0       -0.0822
     24  C9         6.1670   35.4670   57.8500 C.ar    0  <0>0       -0.0017
     25  C7         1.8950   33.3270   60.5820 C.3     0  <0>0        0.4913
     26  F1         1.3390   34.5980   60.4060 F       0  <0>0       -0.1565
     27  F2         1.2180   32.4050   59.7760 F       0  <0>0       -0.1565
     28  F3         1.7770   32.9470   61.9230 F       0  <0>0       -0.1565
@<TRIPOS>BOND
     1    23    21    1
     2    22    21   ar
     3    22    24   ar
     4    21    20   ar
     5    24    18   ar
     6     1     2    1
     7    20    19   ar
     8    10     2    2
     9    10     6    2
    10     2     3    1
    11    18    19   ar
    12    18     4    1
    13     6     7    2
    14     6     5    1
    15     7     8    2
    16    11     3    1
    17    11    12    1
    18    27    25    1
    19     3     4    1
    20     5     4    1
    21     5     9    1
    22     8    25    1
    23     8     9    2
    24    26    25    1
    25    25    28    1
    26    12    17   ar
    27    12    13   ar
    28    17    16   ar
    29    13    14   ar
    30    16    15   ar
    31    14    15   ar
