@<TRIPOS>MOLECULE
ZINC04808936_replica-1.pdb
 30 32 0 0 0
SMALL
GASTEIGER

@<TRIPOS>ATOM
      1  C7         9.5560   35.7900   59.9530 C.3     0  <0>0        0.0204
      2  C4         8.7470   34.5200   59.6790 C.3     0  <0>0        0.0088
      3  C3         8.7840   34.1990   58.1820 C.3     0  <0>0        0.0276
      4  C2         7.9100   32.9730   57.9080 C.3     0  <0>0        0.0929
      5  C1         8.4770   31.7650   58.6560 C.3     0  <0>0        0.0296
      6  O1         6.5780   33.2290   58.3580 O.3     0  <0>0       -0.3585
      7  C24        7.8940   32.6830   56.4060 C.3     0  <0>0        0.0296
      8  C6         6.4750   33.4890   59.7600 C.3     0  <0>0        0.1420
      9  C5         7.2920   34.7360   60.1080 C.3     0  <0>0        0.0325
     10  C8         8.6140   36.9080   60.4010 C.3     0  <0>0       -0.0190
     11  C9         9.0120   38.2160   59.7140 C.3     0  <0>0       -0.0809
     12  N1         7.9550   38.6020   58.7600 N.4     0  <0>0        0.3865
     13  H32        7.7250   39.5940   58.8940 H       0  <0>0       -0.0840
     14  H33        7.1190   38.0320   58.9330 H       0  <0>0       -0.0840
     15  C10        8.4110   38.3900   57.3750 C.3     0  <0>0       -0.0543
     16  C11        7.5200   37.3710   56.7110 C.ar    0  <0>0       -0.0435
     17  C16        6.3760   36.9340   57.3530 C.ar    0  <0>0       -0.0032
     18  C15        5.5580   36.0000   56.7460 C.ar    0  <0>0        0.0365
     19  C14        5.8850   35.5010   55.4940 C.ar    0  <0>0        0.1387
     20  C13        7.0340   35.9420   54.8530 C.ar    0  <0>0        0.0365
     21  C12        7.8460   36.8800   55.4610 C.ar    0  <0>0       -0.0032
     22  O2         5.0820   34.5820   54.8970 O.3     0  <0>0       -0.4714
     23  C17        4.1990   33.8440   55.7440 C.3     0  <0>0        0.2525
     24  C18       10.5660   35.5170   61.0380 C.ar    0  <0>0       -0.0224
     25  C23       10.8740   36.5030   61.9580 C.ar    0  <0>0       -0.0020
     26  C22       11.8010   36.2540   62.9530 C.ar    0  <0>0        0.0293
     27  C21       12.4180   35.0170   63.0300 C.ar    0  <0>0        0.1401
     28  C20       12.1080   34.0310   62.1080 C.ar    0  <0>0        0.0293
     29  F1        13.3240   34.7720   64.0020 F       0  <0>0       -0.2042
     30  C19       11.1780   34.2810   61.1160 C.ar    0  <0>0       -0.0020
@<TRIPOS>BOND
     1    20    21   ar
     2    20    19   ar
     3    22    19    1
     4    22    23    1
     5    21    16   ar
     6    19    18   ar
     7     7     4    1
     8    16    17   ar
     9    16    15    1
    10    18    17   ar
    11    15    12    1
    12     4     3    1
    13     4     6    1
    14     4     5    1
    15     3     2    1
    16     6     8    1
    17    12    13    1
    18    12    14    1
    19    12    11    1
    20     2     1    1
    21     2     9    1
    22    11    10    1
    23     8     9    1
    24     1    10    1
    25     1    24    1
    26    24    30   ar
    27    24    25   ar
    28    30    28   ar
    29    25    26   ar
    30    28    27   ar
    31    26    27   ar
    32    27    29    1
