@<TRIPOS>MOLECULE
ZINC41435140_replica-1.pdb
 28 31 0 0 0
SMALL
GASTEIGER

@<TRIPOS>ATOM
      1  C6         1.9420   32.7610   59.4410 C.2     0  <0>0        0.0782
      2  C7         1.0290   32.0160   58.7520 C.2     0  <0>0        0.1871
      3  C8         0.3970   30.8340   59.2250 C.2     0  <0>0        0.2325
      4  O2         0.5560   30.2900   60.3050 O.2     0  <0>0       -0.2832
      5  C9        -0.4920   30.4080   58.1300 C.ar    0  <0>0        0.0728
      6  C10       -1.3720   29.3370   57.9680 C.ar    0  <0>0       -0.0127
      7  C11       -2.0750   29.2060   56.8040 C.ar    0  <0>0        0.0330
      8  C12       -1.9170   30.1360   55.7800 C.ar    0  <0>0        0.1418
      9  C13       -1.0470   31.2050   55.9280 C.ar    0  <0>0        0.0744
     10  C14       -0.3250   31.3520   57.1030 C.ar    0  <0>0        0.1513
     11  O3         0.5680   32.2810   57.5080 O.3     0  <0>0       -0.4500
     12  C22       -1.5440   28.3280   59.0730 C.3     0  <0>0        0.0313
     13  O4        -2.6230   29.9960   54.6290 O.3     0  <0>0       -0.4705
     14  C15       -1.8990   30.1370   53.4040 C.3     0  <0>0        0.2320
     15  C16       -1.5220   28.7740   52.8840 C.ar    0  <0>0        0.0221
     16  C21       -0.7170   27.9450   53.6420 C.ar    0  <0>0        0.0116
     17  C20       -0.3750   26.6910   53.1680 C.ar    0  <0>0        0.0680
     18  C19       -0.8310   26.2730   51.9290 C.ar    0  <0>0        0.0682
     19 Cl          0.6300   25.6460   54.1220 Cl      0  <0>0       -0.0814
     20  C18       -1.6320   27.1070   51.1690 C.ar    0  <0>0        0.0120
     21 Cl         -0.3970   24.7020   51.3300 Cl      0  <0>0       -0.0814
     22  C17       -1.9770   28.3570   51.6470 C.ar    0  <0>0        0.0002
     23  C5         2.4910   33.9230   58.8540 C.ar    0  <0>0        0.1481
     24  C4         2.2740   35.2240   59.2650 C.ar    0  <0>0        0.0404
     25  C3         3.0130   36.0450   58.4000 C.ar    0  <0>0        0.0361
     26  C2         3.6370   35.2350   57.5160 C.ar    0  <0>0        0.1233
     27  C1         4.5420   35.6900   56.4000 C.3     0  <0>0        0.0725
     28  O1         3.3180   33.9620   57.7880 O.2     0  <0>0       -0.4576
@<TRIPOS>BOND
     1    20    22   ar
     2    20    18   ar
     3    21    18    1
     4    22    15   ar
     5    18    17   ar
     6    15    14    1
     7    15    16   ar
     8    17    16   ar
     9    17    19    1
    10    14    13    1
    11    13     8    1
    12     8     9   ar
    13     8     7   ar
    14     9    10   ar
    15    27    26    1
    16     7     6   ar
    17    10    11    1
    18    10     5   ar
    19    11     2    1
    20    26    28   ar
    21    26    25   ar
    22    28    23   ar
    23     6     5   ar
    24     6    12    1
    25     5     3    1
    26    25    24   ar
    27     2     3    1
    28     2     1    2
    29    23    24   ar
    30    23     1    1
    31     3     4    2
