@<TRIPOS>MOLECULE
ZINC20560526_replica-1.pdb
 20 20 0 0 0
SMALL
GASTEIGER

@<TRIPOS>ATOM
      1  C9        -0.8500   27.8990   53.4690 C.ar    0  <0>0        0.0485
      2  C10       -1.5260   28.2670   52.3120 C.ar    0  <0>0        0.0142
      3  C11       -1.6210   27.3800   51.2580 C.ar    0  <0>0        0.0012
      4  C12       -1.0430   26.1270   51.3520 C.ar    0  <0>0        0.0000
      5  C13       -0.3690   25.7580   52.5010 C.ar    0  <0>0        0.0051
      6  C14       -0.2660   26.6420   53.5580 C.ar    0  <0>0        0.0845
      7  N1        -0.7520   28.7940   54.5370 N.pl3   0  <0>0       -0.3341
      8  H18       -0.0180   28.6170   55.3370 H       0  <0>0        0.1468
      9  C6        -1.6260   29.9680   54.5910 C.3     0  <0>0        0.0690
     10  C5        -2.3250   30.0210   55.9500 C.3     0  <0>0        0.0195
     11  C3        -1.8800   28.8280   56.8000 C.3     0  <0>0        0.0016
     12  C4        -1.2480   29.3350   58.0990 C.3     0  <0>0        0.0001
     13  C2        -3.0930   27.9570   57.1300 C.3     0  <0>0        0.0001
     14  C1        -2.7590   27.0440   58.3120 C.3     0  <0>0        0.0000
     15  C7        -0.7900   31.2350   54.3990 C.3     0  <0>0        0.0195
     16  C8         0.3960   31.2160   55.3660 C.3     0  <0>0        0.0017
     17  C15        0.4740   26.2410   54.8080 C.3     0  <0>0        0.4197
     18  F1         1.0150   24.9620   54.6390 F       0  <0>0       -0.1658
     19  F2         1.5040   27.1550   55.0540 F       0  <0>0       -0.1658
     20  F3        -0.4110   26.2330   55.8910 F       0  <0>0       -0.1658
@<TRIPOS>BOND
     1     3     4   ar
     2     3     2   ar
     3     4     5   ar
     4     2     1   ar
     5     5     6   ar
     6     1     6   ar
     7     1     7    1
     8     6    17    1
     9    15     9    1
    10    15    16    1
    11     7     9    1
    12     7     8    1
    13     9    10    1
    14    18    17    1
    15    17    19    1
    16    17    20    1
    17    10    11    1
    18    11    13    1
    19    11    12    1
    20    13    14    1
