@<TRIPOS>MOLECULE
ZINC16854079_replica-1.pdb
 25 26 0 0 0
SMALL
GASTEIGER

@<TRIPOS>ATOM
      1  C1        -0.0870   31.2390   54.8150 C.3     0  <0>0        0.0477
      2  C2         0.6350   31.8580   55.9840 C.2     0  <0>0        0.0359
      3  C3         0.3260   31.4940   57.2470 C.2     0  <0>0        0.0827
      4  C4         1.0250   32.0950   58.3250 C.1     0  <0>0        0.2031
      5  O1         0.7640   31.7830   59.4770 O.2     0  <0>0       -0.2095
      6  N1         1.9740   33.0070   58.0720 N.2     0  <0>0       -0.3109
      7  H1         1.8450   33.0500   54.8720 H       0  <0>0        0.1548
      8  C5         2.2630   33.3490   56.8320 C.2     0  <0>0        0.2241
      9  N2         1.6140   32.7870   55.7770 N.pl3   0  <0>0       -0.2853
     10  C8        -0.7450   30.4670   57.5080 C.3     0  <0>0        0.0518
     11  C9        -0.1100   29.0780   57.5940 C.3     0  <0>0        0.0634
     12  S2        -0.9160   27.9690   56.4060 S.3     0  <0>0       -0.1350
     13  C10        0.4490   27.3550   55.3820 C.3     0  <0>0        0.0846
     14  C11       -0.0790   26.9540   54.0290 C.ar    0  <0>0       -0.0007
     15  C16        0.0550   25.6480   53.5930 C.ar    0  <0>0        0.0545
     16  C15       -0.4370   25.2800   52.3530 C.ar    0  <0>0        0.0111
     17 Cl          0.8310   24.4700   54.6040 Cl      0  <0>0       -0.0825
     18  C14       -1.0500   26.2190   51.5450 C.ar    0  <0>0        0.0008
     19  C13       -1.1790   27.5260   51.9800 C.ar    0  <0>0       -0.0002
     20  C12       -0.6940   27.8930   53.2220 C.ar    0  <0>0       -0.0026
     21  S1         3.5160   34.5520   56.5360 S.3     0  <0>0       -0.0539
     22  C6         4.7460   33.6680   55.5360 C.3     0  <0>0        0.1795
     23  C7         5.2860   34.5900   54.4740 C.2     0  <0>0        0.3761
     24  O2         6.1920   35.3610   54.7410 O.co2   0  <0>0       -0.2447
     25  O3         4.8190   34.5640   53.3480 O.co2   0  <0>0       -0.2447
@<TRIPOS>BOND
     1    18    19   ar
     2    18    16   ar
     3    19    20   ar
     4    16    15   ar
     5    20    14   ar
     6    25    23   ar
     7    15    14   ar
     8    15    17    1
     9    14    13    1
    10    23    24   ar
    11    23    22    1
    12     1     2    1
    13     7     9    1
    14    13    12    1
    15    22    21    1
    16     9     2    1
    17     9     8    1
    18     2     3    2
    19    12    11    1
    20    21     8    1
    21     8     6    2
    22     3    10    1
    23     3     4    1
    24    10    11    1
    25     6     4    2
    26     4     5    2
