@<TRIPOS>MOLECULE
ZINC49927972_replica-1.pdb
 25 26 0 0 0
SMALL
GASTEIGER

@<TRIPOS>ATOM
      1  C11        8.0410   37.9920   58.7870 C.3     0  <0>0        0.1344
      2  C8         8.9750   37.0420   59.4910 C.ar    0  <0>0        0.0043
      3  C7         9.3180   35.8420   58.8960 C.ar    0  <0>0       -0.0023
      4  C6        10.1750   34.9710   59.5420 C.ar    0  <0>0       -0.0045
      5  C5        10.6880   35.2990   60.7830 C.ar    0  <0>0       -0.0225
      6  C10       10.3410   36.4960   61.3800 C.ar    0  <0>0       -0.0045
      7  C9         9.4870   37.3690   60.7320 C.ar    0  <0>0       -0.0023
      8  C3        11.6230   34.3480   61.4870 C.3     0  <0>0        0.0223
      9  C4        12.2270   35.0400   62.7110 C.3     0  <0>0        0.0047
     10  C2        10.8480   33.1070   61.9330 C.3     0  <0>0        0.0044
     11  C1        11.6910   32.3120   62.9320 C.3     0  <0>0        0.0003
     12  C12        8.6960   38.4860   57.4960 C.3     0  <0>0        0.0550
     13  C13        7.6160   38.7390   56.4410 C.3     0  <0>0        0.0899
     14  N1         7.6100   37.6400   55.4730 N.pl3   0  <0>0       -0.3326
     15  H19        7.9690   37.7760   54.5820 H       0  <0>0        0.1468
     16  C14        7.0890   36.3930   55.8340 C.ar    0  <0>0        0.0448
     17  C19        7.9140   35.2770   55.8680 C.ar    0  <0>0        0.0174
     18  C18        7.3990   34.0470   56.2280 C.ar    0  <0>0        0.0382
     19  C17        6.0540   33.9240   56.5460 C.ar    0  <0>0        0.1388
     20  C16        5.2270   35.0370   56.5070 C.ar    0  <0>0        0.0382
     21  C15        5.7420   36.2680   56.1510 C.ar    0  <0>0        0.0174
     22  O1         5.5470   32.7120   56.8950 O.3     0  <0>0       -0.4714
     23  C20        6.4610   31.6160   56.9460 C.3     0  <0>0        0.2525
     24  O2         7.7650   39.1070   59.6380 O.3     0  <0>0       -0.3800
     25  H27        7.2670   38.8790   60.4340 H       0  <0>0        0.2108
@<TRIPOS>BOND
     1    15    14    1
     2    14    16    1
     3    14    13    1
     4    16    17   ar
     5    16    21   ar
     6    17    18   ar
     7    21    20   ar
     8    18    19   ar
     9    13    12    1
    10    20    19   ar
    11    19    22    1
    12    22    23    1
    13    12     1    1
    14     1     2    1
    15     1    24    1
    16     3     2   ar
    17     3     4   ar
    18     2     7   ar
    19     4     5   ar
    20    24    25    1
    21     7     6   ar
    22     5     6   ar
    23     5     8    1
    24     8    10    1
    25     8     9    1
    26    10    11    1
