@<TRIPOS>MOLECULE
ZINC04866886_replica-1.pdb
 28 31 0 0 0
SMALL
GASTEIGER

@<TRIPOS>ATOM
      1  N1        -0.4180   29.5990   57.8760 N.am    0  <0>0       -0.2120
      2  C8        -0.4220   30.0680   56.5860 C.2     0  <0>0        0.1924
      3  N2        -0.0890   31.3000   56.2730 N.2     0  <0>0       -0.3898
      4  C9         0.2820   32.1910   57.2120 C.2     0  <0>0        0.1231
      5  C10        0.6360   33.5020   56.8740 C.2     0  <0>0        0.0284
      6  C11        1.0070   34.3780   57.8550 C.2     0  <0>0        0.0020
      7  C12        1.0400   33.9880   59.1880 C.2     0  <0>0       -0.0036
      8  C13        0.6970   32.7040   59.5510 C.2     0  <0>0       -0.0103
      9  C14        0.3150   31.7920   58.5690 C.3     0  <0>0        0.1514
     10  C15       -0.0660   30.4120   58.8990 C.2     0  <0>0        0.2453
     11  O1        -0.0610   30.0150   60.0490 O.2     0  <0>0       -0.2733
     12  C16       -0.8150   29.1560   55.5110 C.2     0  <0>0        0.0484
     13  C17        0.1290   28.5550   54.7580 C.2     0  <0>0        0.0040
     14  C18       -0.2660   27.6380   53.6780 C.ar    0  <0>0        0.0003
     15  C23        0.1360   26.2980   53.7140 C.ar    0  <0>0        0.0031
     16  C22       -0.2420   25.4410   52.7030 C.ar    0  <0>0        0.0366
     17  C21       -1.0100   25.9090   51.6430 C.ar    0  <0>0        0.1337
     18  C20       -1.4070   27.2410   51.6010 C.ar    0  <0>0        0.0366
     19  C19       -1.0400   28.1030   52.6090 C.ar    0  <0>0        0.0031
     20  O2        -1.3750   25.0620   50.6470 O.3     0  <0>0       -0.5055
     21  H18       -2.2930   25.1620   50.3620 H       0  <0>0        0.2922
     22  C7        -0.7870   28.2730   58.1370 C.ar    0  <0>0        0.0564
     23  C2         0.1880   27.2890   58.2420 C.ar    0  <0>0       -0.0078
     24  C1         1.6430   27.6460   58.0780 C.3     0  <0>0        0.0323
     25  C3        -0.1780   25.9820   58.5050 C.ar    0  <0>0       -0.0030
     26  C4        -1.5120   25.6540   58.6560 C.ar    0  <0>0       -0.0002
     27  C5        -2.4850   26.6310   58.5450 C.ar    0  <0>0        0.0013
     28  C6        -2.1260   27.9380   58.2840 C.ar    0  <0>0        0.0150
@<TRIPOS>BOND
     1    21    20    1
     2    20    17    1
     3    18    17   ar
     4    18    19   ar
     5    17    16   ar
     6    19    14   ar
     7    16    15   ar
     8    14    15   ar
     9    14    13    1
    10    13    12    2
    11    12     2    1
    12     3     2    2
    13     3     4    2
    14     2     1    1
    15     5     4    1
    16     5     6    2
    17     4     9    1
    18     6     7    1
    19     1    22    1
    20     1    10   am
    21    24    23    1
    22    22    23   ar
    23    22    28   ar
    24    23    25   ar
    25    28    27   ar
    26    25    26   ar
    27    27    26   ar
    28     9    10    1
    29     9     8    1
    30    10    11    2
    31     7     8    2
