@<TRIPOS>MOLECULE
ZINC05325003_replica-1.pdb
 25 25 0 0 0
SMALL
GASTEIGER

@<TRIPOS>ATOM
      1  C7         7.9620   36.3650   58.7100 C.3     0  <0>0        0.0847
      2  C4         6.6180   35.8400   59.2190 C.3     0  <0>0        0.1061
      3  C5         6.2280   36.5900   60.4950 C.3     0  <0>0        0.0128
      4  C6         5.5470   36.0620   58.1510 C.3     0  <0>0        0.0128
      5  C3         6.7350   34.3680   59.5170 C.2     0  <0>0        0.3175
      6  O2         6.9000   33.9920   60.6530 O.2     0  <0>0       -0.2501
      7  O1         6.6550   33.4720   58.5190 O.3     0  <0>0       -0.4485
      8  C2         7.0930   32.1190   58.8110 C.3     0  <0>0        0.2086
      9  C1         8.5440   31.9440   58.3570 C.3     0  <0>0        0.0513
     10  C8         7.9410   36.4230   57.1820 C.3     0  <0>0        0.0202
     11  C9         8.2960   37.8380   56.7200 C.3     0  <0>0        0.0017
     12  C10        7.2400   38.3310   55.7290 C.3     0  <0>0        0.0001
     13  C11        8.3370   38.7740   57.9290 C.3     0  <0>0        0.0001
     14  N1         9.0340   35.4680   59.1500 N.am    0  <0>0       -0.2718
     15  C12        9.9390   35.8920   60.0550 C.2     0  <0>0        0.4019
     16  O3         9.8790   37.0250   60.4880 O.2     0  <0>0       -0.2264
     17  H22        9.0930   34.5690   58.7890 H       0  <0>0        0.1527
     18  O4        10.9080   35.0590   60.4800 O.3     0  <0>0       -0.4297
     19  C13       10.5290   34.0480   61.4500 C.3     0  <0>0        0.2367
     20  C14       11.7660   33.4930   62.1070 C.ar    0  <0>0        0.0213
     21  C19       11.7150   32.2770   62.7620 C.ar    0  <0>0       -0.0007
     22  C18       12.8500   31.7680   63.3650 C.ar    0  <0>0       -0.0002
     23  C17       14.0370   32.4750   63.3130 C.ar    0  <0>0       -0.0000
     24  C16       14.0890   33.6910   62.6560 C.ar    0  <0>0       -0.0002
     25  C15       12.9550   34.1970   62.0490 C.ar    0  <0>0       -0.0007
@<TRIPOS>BOND
     1    12    11    1
     2    11    10    1
     3    11    13    1
     4    10     1    1
     5     4     2    1
     6     9     8    1
     7     7     8    1
     8     7     5    1
     9     1    14    1
    10     1     2    1
    11    17    14    1
    12    14    15   am
    13     2     5    1
    14     2     3    1
    15     5     6    2
    16    15    18    1
    17    15    16    2
    18    18    19    1
    19    19    20    1
    20    25    20   ar
    21    25    24   ar
    22    20    21   ar
    23    24    23   ar
    24    21    22   ar
    25    23    22   ar
