@<TRIPOS>MOLECULE
ZINC05247887_replica-1.pdb
 22 23 0 0 0
SMALL
GASTEIGER

@<TRIPOS>ATOM
      1  C1         7.9500   32.4870   59.5170 C.3     0  <0>0        0.0328
      2  C2         9.0900   32.9610   60.3810 C.2     0  <0>0        0.0021
      3  C3         9.6090   32.1470   61.3200 C.2     0  <0>0        0.0390
      4  C4        10.7110   32.6080   62.1630 C.2     0  <0>0        0.1915
      5  O1        11.1760   31.8700   63.0160 O.2     0  <0>0       -0.2869
      6  C5        11.2590   33.9520   61.9860 C.2     0  <0>0        0.0180
      7  C6        10.7490   34.7710   61.0450 C.2     0  <0>0        0.0209
      8  C7         9.6410   34.3110   60.1960 C.2     0  <0>0        0.1160
      9  N1         9.1420   35.1050   59.2780 N.2     0  <0>0       -0.0735
     10  O2         9.5970   36.2260   59.1300 O.3     0  <0>0       -0.3113
     11  C8         8.7680   37.1600   58.6220 C.2     0  <0>0        0.3679
     12  O3         8.7660   38.2840   59.0810 O.2     0  <0>0       -0.2425
     13  C9         7.8650   36.8160   57.5060 C.ar    0  <0>0        0.0832
     14  C14        6.5240   36.5120   57.7570 C.ar    0  <0>0        0.0364
     15  C13        5.6850   36.1900   56.7090 C.ar    0  <0>0        0.0060
     16  I1         5.7900   36.5420   59.7190 I       0  <0>0       -0.0423
     17  C12        6.1670   36.1750   55.4130 C.ar    0  <0>0        0.0004
     18  C11        7.4950   36.4700   55.1580 C.ar    0  <0>0        0.0002
     19  C10        8.3450   36.7930   56.1950 C.ar    0  <0>0        0.0069
     20  C15       12.3960   34.4230   62.8570 C.3     0  <0>0        0.0255
     21  C16       13.7240   34.1700   62.1420 C.3     0  <0>0        0.0048
     22  C17       12.2410   35.9200   63.1300 C.3     0  <0>0        0.0048
@<TRIPOS>BOND
     1    18    17   ar
     2    18    19   ar
     3    17    15   ar
     4    19    13   ar
     5    15    14   ar
     6    13    14   ar
     7    13    11    1
     8    14    16    1
     9    11    12    2
    10    11    10    1
    11    10     9    1
    12     9     8    2
    13     1     2    1
    14     8     2    1
    15     8     7    1
    16     2     3    2
    17     7     6    2
    18     3     4    1
    19     6     4    1
    20     6    20    1
    21    21    20    1
    22     4     5    2
    23    20    22    1
