@<TRIPOS>MOLECULE
ZINC13399474_replica-1.pdb
 26 28 0 0 0
SMALL
GASTEIGER

@<TRIPOS>ATOM
      1  C8         9.6590   35.9040   59.5030 C.3     0  <0>0        0.1463
      2  S1         8.7420   37.4500   59.7460 S.3     0  <0>0       -0.1227
      3  C7         8.6200   38.1540   58.0790 C.3     0  <0>0        0.0845
      4  C6         7.7270   37.2860   57.2300 C.ar    0  <0>0       -0.0113
      5  C1         6.4910   36.8930   57.7120 C.ar    0  <0>0       -0.0032
      6  C2         5.6670   36.1010   56.9380 C.ar    0  <0>0        0.0063
      7  C3         6.0870   35.6890   55.6720 C.ar    0  <0>0        0.0798
      8  C4         7.3390   36.0850   55.1950 C.ar    0  <0>0        0.0063
      9  C5         8.1510   36.8800   55.9770 C.ar    0  <0>0       -0.0032
     10  C19        5.2130   34.8370   54.8400 C.2     0  <0>0        0.3878
     11  O2         5.5790   33.7270   54.5130 O.co2   0  <0>0       -0.2406
     12  O3         4.0090   35.2940   54.4440 O.co2   0  <0>0       -0.2406
     13  C9        10.5400   35.6500   60.7000 C.ar    0  <0>0       -0.0037
     14  C14       11.2230   34.4530   60.8130 C.ar    0  <0>0       -0.0007
     15  C13       12.0300   34.2190   61.9100 C.ar    0  <0>0        0.0294
     16  C12       12.1550   35.1830   62.8950 C.ar    0  <0>0        0.1401
     17  C11       11.4710   36.3820   62.7810 C.ar    0  <0>0        0.0294
     18  F1        12.9440   34.9560   63.9680 F       0  <0>0       -0.2042
     19  C10       10.6680   36.6160   61.6800 C.ar    0  <0>0       -0.0007
     20  C15        8.6890   34.7630   59.3430 C.2     0  <0>0        0.2363
     21  O1         7.8660   34.5410   60.2060 O.2     0  <0>0       -0.2738
     22  N1         8.7350   33.9880   58.2420 N.am    0  <0>0       -0.3050
     23  H12        9.4390   34.1170   57.5870 H       0  <0>0        0.1494
     24  C16        7.7200   32.9520   58.0330 C.3     0  <0>0        0.0717
     25  C18        7.7740   32.1660   56.7210 C.3     0  <0>0        0.0213
     26  C17        8.1890   31.4950   58.0330 C.3     0  <0>0        0.0213
@<TRIPOS>BOND
     1    12    10   ar
     2    11    10   ar
     3    10     7    1
     4     8     7   ar
     5     8     9   ar
     6     7     6   ar
     7     9     4   ar
     8    25    26    1
     9    25    24    1
    10     6     5   ar
    11     4     5   ar
    12     4     3    1
    13    23    22    1
    14    26    24    1
    15    24    22    1
    16     3     2    1
    17    22    20   am
    18    20     1    1
    19    20    21    2
    20     1     2    1
    21     1    13    1
    22    13    14   ar
    23    13    19   ar
    24    14    15   ar
    25    19    17   ar
    26    15    16   ar
    27    17    16   ar
    28    16    18    1
