@<TRIPOS>MOLECULE
ZINC35361400_replica-1.pdb
 31 35 0 0 0
SMALL
GASTEIGER

@<TRIPOS>ATOM
      1  C8         1.4990   32.1560   57.3070 C.3     0  <0>0        0.1435
      2  C9         2.1790   32.4410   58.6450 C.3     0  <0>0        0.0320
      3  C10        2.7040   33.8720   58.6940 C.3     0  <0>0        0.0026
      4  C11        3.6890   34.1320   57.5440 C.3     0  <0>0        0.0002
      5  C12        2.9560   33.8620   56.2260 C.3     0  <0>0        0.0025
      6  C13        2.4750   32.4180   56.1570 C.3     0  <0>0        0.0320
      7  C14        3.8660   34.1900   55.0450 C.3     0  <0>0        0.0001
      8  C15        4.1640   35.6910   55.0680 C.3     0  <0>0        0.0000
      9  C16        4.8760   36.0710   56.3650 C.3     0  <0>0        0.0004
     10  C17        4.1190   35.5920   57.5850 C.3     0  <0>0        0.0000
     11  C18        4.8280   35.9710   58.8730 C.3     0  <0>0        0.0004
     12  C19        6.3060   35.6350   58.8850 C.3     0  <0>0        0.0069
     13  C20        7.0490   36.0230   57.6330 C.3     0  <0>0        0.0515
     14  C21        6.3340   35.6250   56.3320 C.3     0  <0>0        0.0070
     15  C22        7.0560   36.5280   55.2860 C.3     0  <0>0        0.0082
     16  C23        7.3610   37.8330   56.0490 C.3     0  <0>0        0.0645
     17  C24        7.2680   37.5140   57.5290 C.2     0  <0>0        0.1498
     18  O4         7.3530   38.2960   58.4450 O.2     0  <0>0       -0.2961
     19  C25        8.4210   35.3390   57.6590 C.3     0  <0>0        0.0073
     20  C26        4.8730   33.1820   57.6900 C.3     0  <0>0        0.0000
     21  O3         1.0740   30.7920   57.2680 O.3     0  <0>0       -0.2411
     22  S1        -0.4080   30.6130   56.9720 S.3     0  <0>0        0.0129
     23  O1        -0.8970   31.8850   56.5690 O.3     0  <0>0       -0.0673
     24  O2        -0.9590   29.8980   58.0690 O.3     0  <0>0       -0.0673
     25  C5        -0.5360   29.5570   55.5670 C.ar    0  <0>0        0.1096
     26  C4        -1.2910   29.9460   54.4770 C.ar    0  <0>0        0.0185
     27  C3        -1.3910   29.1190   53.3740 C.ar    0  <0>0       -0.0029
     28  C2        -0.7350   27.9020   53.3620 C.ar    0  <0>0       -0.0218
     29  C1        -0.8450   26.9990   52.1600 C.3     0  <0>0        0.0310
     30  C7         0.0160   27.5110   54.4540 C.ar    0  <0>0       -0.0029
     31  C6         0.1200   28.3400   55.5550 C.ar    0  <0>0        0.0185
@<TRIPOS>BOND
     1    29    28    1
     2    28    27   ar
     3    28    30   ar
     4    27    26   ar
     5    30    31   ar
     6    26    25   ar
     7     7     8    1
     8     7     5    1
     9     8     9    1
    10    15    16    1
    11    15    14    1
    12    31    25   ar
    13    25    22    1
    14    16    17    1
    15     6     5    1
    16     6     1    1
    17     5     4    1
    18    14     9    1
    19    14    13    1
    20     9    10    1
    21    23    22    1
    22    22    21    1
    23    22    24    1
    24    21     1    1
    25     1     2    1
    26    17    13    1
    27    17    18    2
    28     4    10    1
    29     4    20    1
    30     4     3    1
    31    10    11    1
    32    13    19    1
    33    13    12    1
    34     2     3    1
    35    11    12    1
