@<TRIPOS>MOLECULE
ZINC41978130_replica-1.pdb
 22 22 0 0 0
SMALL
GASTEIGER

@<TRIPOS>ATOM
      1  C4         9.0120   35.9470   58.5680 C.2     0  <0>0        0.0403
      2  C5         8.6550   37.1150   59.1420 C.2     0  <0>0        0.1168
      3  C6         7.7290   37.9550   58.4710 C.1     0  <0>0        0.2080
      4  O1         7.3890   39.0160   58.9690 O.2     0  <0>0       -0.2092
      5  N1         7.2300   37.5750   57.2870 N.2     0  <0>0       -0.3107
      6  C7         7.5910   36.4310   56.7400 C.2     0  <0>0        0.2240
      7  N2         8.4800   35.6070   57.3560 N.pl3   0  <0>0       -0.2850
      8  H1         8.7360   34.7710   56.9360 H       0  <0>0        0.1548
      9  S1         6.9140   35.9640   55.1820 S.3     0  <0>0       -0.0568
     10  C8         5.4800   34.9410   55.6150 C.3     0  <0>0        0.1400
     11  C9         4.5460   34.8350   54.4090 C.3     0  <0>0        0.0227
     12  C10        4.7300   35.5820   56.7860 C.3     0  <0>0        0.0213
     13  C11        3.3630   36.0730   56.3070 C.3     0  <0>0        0.0014
     14  C12        2.3740   36.0470   57.4750 C.3     0  <0>0        0.0000
     15  C13        0.9810   35.6840   56.9560 C.3     0  <0>0        0.0000
     16  C14        2.8240   35.0060   58.5010 C.3     0  <0>0        0.0000
     17  C15        5.9470   33.5640   56.0120 C.2     0  <0>0        0.3733
     18  O2         7.1080   33.2380   55.8310 O.co2   0  <0>0       -0.2448
     19  O3         5.1650   32.7760   56.5150 O.co2   0  <0>0       -0.2448
     20  C3         9.9930   35.0300   59.2520 C.3     0  <0>0        0.0420
     21  C2        10.4190   35.6440   60.5870 C.3     0  <0>0        0.0060
     22  C1        11.3850   34.6950   61.3000 C.3     0  <0>0        0.0004
@<TRIPOS>BOND
     1    11    10    1
     2     9    10    1
     3     9     6    1
     4    10    17    1
     5    10    12    1
     6    18    17   ar
     7    17    19   ar
     8    13    12    1
     9    13    14    1
    10     6     5    2
    11     6     7    1
    12     8     7    1
    13    15    14    1
    14     5     3    2
    15     7     1    1
    16    14    16    1
    17     3     4    2
    18     3     2    1
    19     1     2    2
    20     1    20    1
    21    20    21    1
    22    21    22    1
