@<TRIPOS>MOLECULE
ZINC03284113_replica-1.pdb
 21 23 0 0 0
SMALL
GASTEIGER

@<TRIPOS>ATOM
      1  C5        -1.0580   29.3840   54.7110 C.2     0  <0>0        0.1284
      2  C6        -1.8350   29.1690   55.8160 C.3     0  <0>0        0.1252
      3  S2        -1.4910   30.6490   56.7590 S.3     0  <0>0       -0.0593
      4  C7        -0.3660   31.4030   55.5930 C.2     0  <0>0        0.2133
      5  N1        -0.3400   30.5010   54.6280 N.2     0  <0>0       -0.3837
      6  N2         0.3080   32.6130   55.6810 N.am    0  <0>0       -0.2484
      7  C8         1.4510   32.6970   56.3900 C.2     0  <0>0        0.2864
      8  O1         1.8920   31.7120   56.9530 O.2     0  <0>0       -0.2664
      9  H4        -0.0430   33.3980   55.2320 H       0  <0>0        0.1581
     10  C9         2.1630   33.9740   56.4850 C.ar    0  <0>0        0.1995
     11  O2         3.4260   34.2100   56.0710 O.2     0  <0>0       -0.4423
     12  C12        3.7440   35.4870   56.3230 C.ar    0  <0>0        0.1793
     13  C11        2.6820   36.0940   56.9000 C.ar    0  <0>0        0.0478
     14 Br          5.4040   36.3050   55.9330 Br      0  <0>0       -0.0078
     15  C10        1.6640   35.1350   57.0050 C.ar    0  <0>0        0.0459
     16  C4        -1.0150   28.3860   53.6210 C.ar    0  <0>0        0.0566
     17  C1        -1.5590   28.4540   52.3670 C.ar    0  <0>0        0.0101
     18  C2        -1.3840   27.3880   51.5090 C.ar    0  <0>0        0.0186
     19  C3        -0.6870   26.3030   51.9380 C.ar    0  <0>0        0.0870
     20  S1        -0.2440   26.7760   53.6010 S.2     0  <0>0       -0.0732
     21 Cl         -0.3220   24.8350   51.0860 Cl      0  <0>0       -0.0752
@<TRIPOS>BOND
     1    21    19    1
     2    18    19   ar
     3    18    17   ar
     4    19    20   ar
     5    17    16   ar
     6    20    16   ar
     7    16     1    1
     8     5     1    2
     9     5     4    2
    10     1     2    1
    11     9     6    1
    12     4     6    1
    13     4     3    1
    14     6     7   am
    15     2     3    1
    16    14    12    1
    17    11    12   ar
    18    11    10   ar
    19    12    13   ar
    20     7    10    1
    21     7     8    2
    22    10    15   ar
    23    13    15   ar
