@<TRIPOS>MOLECULE
ZINC00888753_replica-1.pdb
 31 34 0 0 0
SMALL
GASTEIGER

@<TRIPOS>ATOM
      1  C11        1.8860   32.2730   56.7060 C.3     0  <0>0        0.1519
      2  C12        2.7350   31.9440   57.7280 C.2     0  <0>0        0.1058
      3  N3         3.8250   32.6530   57.9190 N.2     0  <0>0       -0.3881
      4  C13        4.1280   33.6760   57.1370 C.2     0  <0>0        0.2132
      5  S2         2.7440   33.6770   56.0050 S.3     0  <0>0       -0.0540
      6  C21        2.4180   30.7800   58.6330 C.3     0  <0>0        0.0629
      7  C9         0.6110   31.6430   56.2960 C.2     0  <0>0        0.1167
      8  N2         0.5570   30.8830   55.2040 N.2     0  <0>0       -0.3873
      9  C8        -0.5710   30.3080   54.8280 C.2     0  <0>0        0.2106
     10  S1        -1.7010   30.8720   56.0930 S.3     0  <0>0       -0.0597
     11  C10       -0.5250   31.8400   57.0310 C.3     0  <0>0        0.1214
     12  N1        -0.8160   29.4900   53.7360 N.pl3   0  <0>0       -0.2833
     13  H7        -1.2430   29.8530   52.9440 H       0  <0>0        0.1551
     14  C3        -0.4460   28.1430   53.7770 C.ar    0  <0>0        0.0472
     15  C2        -0.7460   27.3070   52.7080 C.ar    0  <0>0        0.0022
     16  C1        -1.4700   27.8510   51.5040 C.3     0  <0>0        0.0332
     17  C7        -0.3770   25.9750   52.7510 C.ar    0  <0>0        0.0549
     18  C6         0.2880   25.4750   53.8570 C.ar    0  <0>0        0.0112
     19 Cl         -0.7520   24.9290   51.4160 Cl      0  <0>0       -0.0825
     20  C5         0.5870   26.3050   54.9210 C.ar    0  <0>0        0.0021
     21  C4         0.2280   27.6380   54.8820 C.ar    0  <0>0        0.0144
     22  N4         5.2250   34.5240   57.1840 N.am    0  <0>0       -0.2509
     23  C14        5.1370   35.7050   57.8280 C.2     0  <0>0        0.2516
     24  O1         4.0960   36.0260   58.3670 O.2     0  <0>0       -0.2697
     25  H9         6.0560   34.2680   56.7530 H       0  <0>0        0.1580
     26  C15        6.3050   36.6090   57.8780 C.ar    0  <0>0        0.0537
     27  C20        7.0430   36.8640   56.7200 C.ar    0  <0>0        0.0045
     28  C19        8.1320   37.7100   56.7740 C.ar    0  <0>0        0.0001
     29  C18        8.4920   38.3040   57.9710 C.ar    0  <0>0        0.0000
     30  C17        7.7650   38.0550   59.1210 C.ar    0  <0>0        0.0001
     31  C16        6.6700   37.2160   59.0800 C.ar    0  <0>0        0.0045
@<TRIPOS>BOND
     1    19    17    1
     2    16    15    1
     3    15    17   ar
     4    15    14   ar
     5    17    18   ar
     6    13    12    1
     7    12    14    1
     8    12     9    1
     9    14    21   ar
    10    18    20   ar
    11     9     8    2
    12     9    10    1
    13    21    20   ar
    14     8     7    2
    15     5     1    1
    16     5     4    1
    17    10    11    1
    18     7     1    1
    19     7    11    1
    20     1     2    1
    21    27    28   ar
    22    27    26   ar
    23    25    22    1
    24    28    29   ar
    25     4    22    1
    26     4     3    2
    27    22    23   am
    28     2     3    2
    29     2     6    1
    30    23    26    1
    31    23    24    2
    32    26    31   ar
    33    29    30   ar
    34    31    30   ar
