@<TRIPOS>MOLECULE
ZINC20893030_replica-1.pdb
 25 28 0 0 0
SMALL
GASTEIGER

@<TRIPOS>ATOM
      1  C1         0.9490   32.1670   56.2820 C.3     0  <0>0        0.0537
      2  C2         0.3880   30.7980   56.0000 C.ar    0  <0>0        0.0792
      3  C3        -0.2360   29.9560   56.9450 C.ar    0  <0>0        0.0391
      4  C4        -0.6040   28.8220   56.3080 C.ar    0  <0>0        0.1338
      5  N1        -0.2140   28.9540   54.9940 N.ar    0  <0>0       -0.2157
      6  N2         0.3980   30.1990   54.8440 N.ar    0  <0>0       -0.1686
      7  N3        -1.2440   27.6900   56.7490 N.am    0  <0>0       -0.2688
      8  C11       -1.6740   27.2680   57.9000 C.2     0  <0>0        0.2382
      9  O1        -2.1070   26.1340   57.8990 O.2     0  <0>0       -0.2738
     10  C12       -1.7210   27.9490   59.2110 C.3     0  <0>0        0.1434
     11  S1        -0.2800   28.9790   59.5190 S.3     0  <0>0       -0.1218
     12  C13       -0.3990   30.3550   58.3780 C.3     0  <0>0        0.1022
     13  H9        -1.4980   26.8890   56.0380 H       0  <0>0        0.1563
     14  C5        -0.4000   28.0020   53.9820 C.ar    0  <0>0        0.0947
     15  C10       -1.2280   28.2850   52.9030 C.ar    0  <0>0        0.0753
     16  C9        -1.4090   27.3430   51.9070 C.ar    0  <0>0        0.0129
     17 Cl         -2.0350   29.8190   52.8060 Cl      0  <0>0       -0.0807
     18  C8        -0.7660   26.1220   51.9830 C.ar    0  <0>0        0.0010
     19  C7         0.0600   25.8380   53.0560 C.ar    0  <0>0        0.0016
     20  C6         0.2480   26.7760   54.0520 C.ar    0  <0>0        0.0201
     21  C14        0.6670   31.3640   58.7230 C.ar    0  <0>0        0.0213
     22  S2         2.4400   31.1530   58.7690 S.2     0  <0>0       -0.0896
     23  C17        2.8770   32.8140   59.2590 C.ar    0  <0>0        0.0352
     24  C16        1.6620   33.4050   59.3600 C.ar    0  <0>0        0.0072
     25  C15        0.5290   32.6620   59.0850 C.ar    0  <0>0        0.0039
@<TRIPOS>BOND
     1    16    18   ar
     2    16    15   ar
     3    18    19   ar
     4    17    15    1
     5    15    14   ar
     6    19    20   ar
     7    14    20   ar
     8    14     5    1
     9     6     5   ar
    10     6     2   ar
    11     5     4   ar
    12     2     1    1
    13     2     3   ar
    14    13     7    1
    15     4     7    1
    16     4     3   ar
    17     7     8   am
    18     3    12    1
    19     9     8    2
    20     8    10    1
    21    12    21    1
    22    12    11    1
    23    21    22   ar
    24    21    25   ar
    25    22    23   ar
    26    25    24   ar
    27    10    11    1
    28    23    24   ar
