@<TRIPOS>MOLECULE
ZINC66353027_replica-1.pdb
 28 30 0 0 0
SMALL
GASTEIGER

@<TRIPOS>ATOM
      1  C11        6.4980   35.9510   58.3390 C.2     0  <0>0        0.2256
      2  O1         6.5090   35.2400   57.3560 O.2     0  <0>0       -0.2749
      3  N1         7.6570   36.3810   58.8730 N.am    0  <0>0       -0.2795
      4  C12        7.6590   37.2370   60.0670 C.3     0  <0>0        0.0939
      5  C13        8.5590   36.5990   61.1300 C.3     0  <0>0        0.0306
      6  C14        9.9470   36.3480   60.5340 C.3     0  <0>0        0.0799
      7  C15        9.8300   35.3800   59.3540 C.3     0  <0>0        0.0306
      8  C16        8.9440   36.0000   58.2750 C.3     0  <0>0        0.0939
      9  C10        5.1860   36.3510   58.9630 C.3     0  <0>0        0.0853
     10  C4         4.1190   35.3080   58.6230 C.3     0  <0>0        0.0091
     11  C3         2.9070   36.0020   57.9970 C.3     0  <0>0        0.0005
     12  C2         1.8420   34.9580   57.6570 C.3     0  <0>0        0.0000
     13  C1         0.6300   35.6520   57.0320 C.3     0  <0>0        0.0000
     14  C7         1.4120   34.2320   58.9340 C.3     0  <0>0        0.0000
     15  C6         2.6240   33.5390   59.5600 C.3     0  <0>0        0.0000
     16  C5         3.6900   34.5830   59.9000 C.3     0  <0>0        0.0005
     17  C8         2.1940   32.8130   60.8370 C.3     0  <0>0        0.0000
     18  C9         3.2000   32.5260   58.5670 C.3     0  <0>0        0.0000
     19  C17       10.8450   35.7520   61.5870 C.2     0  <0>0        0.2220
     20  O2        11.2620   36.4440   62.4900 O.2     0  <0>0       -0.2751
     21  N2        11.1840   34.4490   61.5240 N.am    0  <0>0       -0.3060
     22  H29       10.8500   33.8950   60.8000 H       0  <0>0        0.1494
     23  C18       12.0560   33.8690   62.5470 C.3     0  <0>0        0.0716
     24  C23       11.7930   32.3640   62.6490 C.3     0  <0>0        0.0196
     25  C22       12.7050   31.7580   63.7170 C.3     0  <0>0        0.0017
     26  C21       14.1670   31.9960   63.3350 C.3     0  <0>0        0.0001
     27  C20       14.4310   33.5000   63.2330 C.3     0  <0>0        0.0017
     28  C19       13.5190   34.1060   62.1640 C.3     0  <0>0        0.0196
@<TRIPOS>BOND
     1    13    12    1
     2     2     1    2
     3    12    11    1
     4    12    14    1
     5    11    10    1
     6     8     3    1
     7     8     7    1
     8     1     3   am
     9     1     9    1
    10    18    15    1
    11    10     9    1
    12    10    16    1
    13     3     4    1
    14    14    15    1
    15     7     6    1
    16    15    16    1
    17    15    17    1
    18     4     5    1
    19     6     5    1
    20     6    19    1
    21    22    21    1
    22    21    19   am
    23    21    23    1
    24    19    20    2
    25    28    23    1
    26    28    27    1
    27    23    24    1
    28    24    25    1
    29    27    26    1
    30    26    25    1
