@<TRIPOS>MOLECULE
ZINC39491368_replica-1.pdb
 28 29 0 0 0
SMALL
GASTEIGER

@<TRIPOS>ATOM
      1  N1        -1.2090   29.9820   55.3160 N.ar    0  <0>0       -0.3264
      2  C8        -0.3830   31.0480   55.0860 C.ar    0  <0>0        0.0694
      3  C9         0.2140   31.4210   56.2280 C.ar    0  <0>0       -0.0251
      4  C10       -0.2710   30.5190   57.2760 C.ar    0  <0>0        0.0115
      5  C11       -1.1690   29.6360   56.6440 C.ar    0  <0>0        0.0595
      6  C12       -1.8060   28.6500   57.3950 C.ar    0  <0>0        0.0174
      7  C13       -1.5670   28.5400   58.7320 C.ar    0  <0>0        0.0079
      8  C14       -0.6780   29.4150   59.3720 C.ar    0  <0>0        0.0757
      9  C15       -0.0230   30.4030   58.6410 C.ar    0  <0>0        0.0075
     10  C18        1.1950   32.5520   56.3990 C.3     0  <0>0       -0.0527
     11  N2         0.4730   33.8300   56.4090 N.4     0  <0>0        0.3865
     12  H25        1.0410   34.5430   55.9760 H       0  <0>0       -0.0840
     13  H35       -0.3910   33.7330   55.8960 H       0  <0>0       -0.0840
     14  C19        0.1780   34.2150   57.7950 C.3     0  <0>0       -0.0812
     15  C20        1.4620   34.1580   58.6260 C.3     0  <0>0       -0.0213
     16  C21        2.0660   35.5600   58.7260 C.3     0  <0>0       -0.0022
     17  C22        1.1390   33.6400   60.0290 C.3     0  <0>0       -0.0022
     18  C7        -2.0210   29.3120   54.2970 C.3     0  <0>0        0.1060
     19  C4        -1.1030   28.6770   53.2500 C.3     0  <0>0        0.0226
     20  C3        -0.7010   27.2740   53.7110 C.3     0  <0>0        0.0019
     21  C2         0.6580   27.3390   54.4130 C.3     0  <0>0        0.0001
     22  C1         0.6140   26.4900   55.6860 C.3     0  <0>0        0.0000
     23  C5        -1.8430   28.5820   51.9140 C.3     0  <0>0        0.0019
     24  C6        -1.4860   27.2640   51.2250 C.3     0  <0>0        0.0001
     25  C16       -0.4290   29.2840   60.8220 C.2     0  <0>0        0.3413
     26  O1        -0.5880   28.2130   61.3700 O.2     0  <0>0       -0.2449
     27  O2        -0.0270   30.3540   61.5350 O.3     0  <0>0       -0.4413
     28  C17       -0.8950   30.8040   62.5760 C.3     0  <0>0        0.2560
@<TRIPOS>BOND
     1    24    23    1
     2    23    19    1
     3    19    20    1
     4    19    18    1
     5    20    21    1
     6    18     1    1
     7    21    22    1
     8     2     1   ar
     9     2     3   ar
    10     1     5   ar
    11    13    11    1
    12    12    11    1
    13     3    10    1
    14     3     4   ar
    15    10    11    1
    16    11    14    1
    17     5     4   ar
    18     5     6   ar
    19     4     9   ar
    20     6     7   ar
    21    14    15    1
    22    15    16    1
    23    15    17    1
    24     9     8   ar
    25     7     8   ar
    26     8    25    1
    27    25    26    2
    28    25    27    1
    29    27    28    1
