@<TRIPOS>MOLECULE
ZINC05553029_replica-1.pdb
 23 24 0 0 0
SMALL
GASTEIGER

@<TRIPOS>ATOM
      1  C9        -0.5280   29.2220   57.4220 C.2     0  <0>0        0.1388
      2  S1        -2.1370   28.7850   57.0300 S.2     0  <0>0       -0.0182
      3  N2         0.4610   29.0220   56.5280 N.am    0  <0>0       -0.2957
      4  H11        1.4820   29.3650   56.7520 H       0  <0>0        0.1539
      5  N1        -0.2520   29.7710   58.6220 N.am    0  <0>0       -0.2959
      6  H10       -0.3190   29.1600   59.5340 H       0  <0>0        0.1539
      7  C5         0.1170   31.1170   58.7060 C.ar    0  <0>0        0.0455
      8  C4        -0.1640   31.9830   57.6570 C.ar    0  <0>0        0.0140
      9  C3         0.2020   33.3110   57.7440 C.ar    0  <0>0       -0.0030
     10  C2         0.8490   33.7800   58.8730 C.ar    0  <0>0       -0.0221
     11  C1         1.2460   35.2310   58.9640 C.3     0  <0>0        0.0310
     12  C7         1.1300   32.9210   59.9180 C.ar    0  <0>0       -0.0073
     13  C6         0.7620   31.5920   59.8410 C.ar    0  <0>0       -0.0087
     14  C8         1.0640   30.6580   60.9830 C.3     0  <0>0        0.0323
     15  C10        0.1900   28.3760   55.3170 C.ar    0  <0>0        0.0495
     16  C15        0.5130   27.0350   55.1560 C.ar    0  <0>0        0.0143
     17  C14        0.2440   26.4010   53.9600 C.ar    0  <0>0       -0.0030
     18  C13       -0.3470   27.0990   52.9230 C.ar    0  <0>0       -0.0224
     19  C12       -0.6700   28.4340   53.0800 C.ar    0  <0>0       -0.0030
     20  C11       -0.4080   29.0730   54.2770 C.ar    0  <0>0        0.0143
     21  C16       -0.6390   26.4030   51.6180 C.3     0  <0>0        0.0224
     22  C17       -0.7820   24.8990   51.8630 C.3     0  <0>0        0.0047
     23  C18       -1.9400   26.9500   51.0280 C.3     0  <0>0        0.0047
@<TRIPOS>BOND
     1    23    21    1
     2    21    22    1
     3    21    18    1
     4    18    19   ar
     5    18    17   ar
     6    19    20   ar
     7    17    16   ar
     8    20    15   ar
     9    16    15   ar
    10    15     3    1
    11     3     4    1
    12     3     1    1
    13     2     1    2
    14     1     5    1
    15     8     9   ar
    16     8     7   ar
    17     9    10   ar
    18     5     7    1
    19     5     6    1
    20     7    13   ar
    21    10    11    1
    22    10    12   ar
    23    13    12   ar
    24    13    14    1
