@<TRIPOS>MOLECULE
ZINC61640189_replica-1.pdb
 20 21 0 0 0
SMALL
GASTEIGER

@<TRIPOS>ATOM
      1  C10        5.1860   35.2700   57.5410 C.2     0  <0>0        0.1501
      2  C11        5.1570   35.5980   56.2000 C.2     0  <0>0        0.0817
      3  C12        3.9930   36.1290   55.6560 C.2     0  <0>0       -0.0035
      4  C13        2.9000   36.3100   56.4840 C.3     0  <0>0        0.1014
      5  C14        3.0020   35.9550   57.8250 C.2     0  <0>0        0.1610
      6  N1         4.1260   35.4480   58.3060 N.2     0  <0>0       -0.3923
      7 Cl          6.5580   35.3520   55.2040 Cl      0  <0>0       -0.0802
      8  C9         6.4450   34.6940   58.1370 C.3     0  <0>0        0.2013
      9  O1         7.1700   35.7260   58.8080 O.3     0  <0>0       -0.3487
     10  C8         8.4180   36.0540   58.1930 C.3     0  <0>0        0.1157
     11  C3         8.8400   37.4640   58.6130 C.3     0  <0>0        0.0272
     12  C4         8.9890   37.5190   60.1350 C.3     0  <0>0        0.0024
     13  C5        10.0550   36.5150   60.5800 C.3     0  <0>0        0.0002
     14  C6         9.6340   35.1050   60.1600 C.3     0  <0>0        0.0025
     15  C7         9.4830   35.0490   58.6380 C.3     0  <0>0        0.0296
     16  C2         7.7740   38.4680   58.1690 C.3     0  <0>0        0.0024
     17  C1         7.6740   38.4640   56.6430 C.3     0  <0>0        0.0001
     18  N2         1.9100   36.1330   58.6690 N.pl3   0  <0>0       -0.3100
     19  C15        1.3300   34.9840   59.3670 C.3     0  <0>0        0.1102
     20  H20        1.5340   37.0180   58.7950 H       0  <0>0        0.1489
@<TRIPOS>BOND
     1     7     2    1
     2     3     2    2
     3     3     4    1
     4     2     1    1
     5     4     5    1
     6    17    16    1
     7     1     8    1
     8     1     6    2
     9     5     6    2
    10     5    18    1
    11     8     9    1
    12    16    11    1
    13    10    11    1
    14    10    15    1
    15    10     9    1
    16    11    12    1
    17    15    14    1
    18    18    20    1
    19    18    19    1
    20    12    13    1
    21    14    13    1
