@<TRIPOS>MOLECULE
ZINC61630231_replica-1.pdb
 22 22 0 0 0
SMALL
GASTEIGER

@<TRIPOS>ATOM
      1  C6         8.9770   34.7540   58.2320 C.ar    0  <0>0        0.0624
      2  C7         9.7500   34.2720   59.2810 C.ar    0  <0>0        0.0179
      3  C8        10.1890   35.1350   60.2660 C.ar    0  <0>0        0.0310
      4  C9         9.8610   36.4780   60.2090 C.ar    0  <0>0        0.1415
      5  C10        9.0910   36.9610   59.1640 C.ar    0  <0>0        0.0495
      6  C11        8.6530   36.1030   58.1740 C.ar    0  <0>0        0.1295
      7  F4        10.2910   37.3210   61.1740 F       0  <0>0       -0.2041
      8  N1         8.5310   33.8830   57.2330 N.pl3   0  <0>0       -0.3310
      9  H12        8.7690   34.0450   56.3070 H       0  <0>0        0.1469
     10  C4         7.7050   32.7260   57.5850 C.3     0  <0>0        0.0991
     11  C5         6.6710   33.1370   58.6340 C.3     0  <0>0        0.0238
     12  C3         6.9880   32.2120   56.3360 C.3     0  <0>0        0.1615
     13  O1         6.7160   33.3070   55.4590 O.3     0  <0>0       -0.3520
     14  C2         5.3240   33.5630   55.2640 C.3     0  <0>0        0.1423
     15  C1         5.1460   34.5800   54.1340 C.3     0  <0>0        0.0346
     16  S1         7.6800   36.7190   56.8410 S.O2    0  <0>0        0.0932
     17  O2         8.3290   36.2460   55.6680 O.2     0  <0>0       -0.1611
     18  O3         6.3520   36.3170   57.1450 O.2     0  <0>0       -0.1611
     19  C12        7.8260   38.5240   56.9510 C.3     0  <0>0        0.5262
     20  F1         9.1740   38.8880   56.8530 F       0  <0>0       -0.1500
     21  F2         7.1080   39.1150   55.9060 F       0  <0>0       -0.1500
     22  F3         7.3130   38.9590   58.1770 F       0  <0>0       -0.1500
@<TRIPOS>BOND
     1    15    14    1
     2    14    13    1
     3    13    12    1
     4    17    16    2
     5    21    19    1
     6     9     8    1
     7    12    10    1
     8    16    19    1
     9    16    18    2
    10    16     6    1
    11    20    19    1
    12    19    22    1
    13     8    10    1
    14     8     1    1
    15    10    11    1
    16     6     1   ar
    17     6     5   ar
    18     1     2   ar
    19     5     4   ar
    20     2     3   ar
    21     4     3   ar
    22     4     7    1
