@<TRIPOS>MOLECULE
ZINC36953471_replica-1.pdb
 22 23 0 0 0
SMALL
GASTEIGER

@<TRIPOS>ATOM
      1  N1        10.8170   35.6660   61.1670 N.pl3   0  <0>0       -0.3306
      2  H15       11.3880   36.3880   60.8630 H       0  <0>0        0.1471
      3  C8        11.3830   34.5140   61.7180 C.ar    0  <0>0        0.0448
      4  C7        12.7040   34.5230   62.1460 C.ar    0  <0>0        0.0140
      5  C6        13.2600   33.3820   62.6910 C.ar    0  <0>0       -0.0030
      6  C5        12.5030   32.2320   62.8110 C.ar    0  <0>0       -0.0224
      7  C10       11.1880   32.2170   62.3810 C.ar    0  <0>0       -0.0030
      8  C9        10.6240   33.3560   61.8410 C.ar    0  <0>0        0.0140
      9  C3        13.1130   30.9880   63.4060 C.3     0  <0>0        0.0223
     10  C4        14.1290   31.3830   64.4790 C.3     0  <0>0        0.0047
     11  C2        12.0130   30.1320   64.0360 C.3     0  <0>0        0.0044
     12  C1        12.5670   29.4160   65.2690 C.3     0  <0>0        0.0003
     13  C11        9.3610   35.7830   61.0500 C.3     0  <0>0        0.0919
     14  C12        8.8780   36.9840   61.8640 C.3     0  <0>0        0.0261
     15  C13        8.9880   35.9750   59.6020 C.ar    0  <0>0       -0.0045
     16  C18        8.8610   34.8760   58.7710 C.ar    0  <0>0       -0.0022
     17  C17        8.5140   35.0480   57.4450 C.ar    0  <0>0        0.0059
     18  C16        8.3030   36.3270   56.9440 C.ar    0  <0>0        0.0252
     19  C15        8.4370   37.4280   57.7810 C.ar    0  <0>0        0.0059
     20  C14        8.7790   37.2490   59.1060 C.ar    0  <0>0       -0.0022
     21  S1         7.8660   36.5510   55.2520 S.3     0  <0>0       -0.1127
     22  C19        6.3890   35.5190   55.0400 C.3     0  <0>0        0.0742
@<TRIPOS>BOND
     1    22    21    1
     2    21    18    1
     3    18    17   ar
     4    18    19   ar
     5    17    16   ar
     6    19    20   ar
     7    16    15   ar
     8    20    15   ar
     9    15    13    1
    10     2     1    1
    11    13     1    1
    12    13    14    1
    13     1     3    1
    14     3     8   ar
    15     3     4   ar
    16     8     7   ar
    17     4     5   ar
    18     7     6   ar
    19     5     6   ar
    20     6     9    1
    21     9    11    1
    22     9    10    1
    23    11    12    1
