@<TRIPOS>MOLECULE
ZINC55591348_replica-1.pdb
 26 27 0 0 0
SMALL
GASTEIGER

@<TRIPOS>ATOM
      1  C5         2.0000   34.3030   59.3040 C.ar    0  <0>0        0.0547
      2  C6         1.0060   35.1160   58.7550 C.ar    0  <0>0        0.0046
      3  C7         1.2260   35.7610   57.5550 C.ar    0  <0>0        0.0015
      4  C8         2.4280   35.6030   56.8910 C.ar    0  <0>0        0.0180
      5  C9         3.4240   34.7960   57.4280 C.ar    0  <0>0        0.0908
      6  C10        3.2140   34.1490   58.6370 C.ar    0  <0>0        0.0225
      7  N2         4.6360   34.6390   56.7530 N.pl3   0  <0>0       -0.1006
      8  S1         6.0410   35.1920   57.4330 S.O2    0  <0>0        0.0735
      9  O2         5.7110   36.3790   58.1420 O.2     0  <0>0       -0.1528
     10  O3         6.6540   34.0750   58.0630 O.2     0  <0>0       -0.1528
     11  C11        7.1060   35.6730   56.1140 C.3     0  <0>0        0.1790
     12  C12        8.2100   36.3600   56.3710 C.3     0  <0>0        0.0537
     13  C13        8.7570   36.3940   57.7440 C.ar    0  <0>0       -0.0204
     14  C18        9.4400   35.2900   58.2530 C.ar    0  <0>0       -0.0045
     15  C17        9.9540   35.3290   59.5340 C.ar    0  <0>0       -0.0046
     16  C16        9.7820   36.4580   60.3160 C.ar    0  <0>0       -0.0219
     17  C15        9.0990   37.5540   59.8190 C.ar    0  <0>0       -0.0046
     18  C19       10.3390   36.4920   61.7160 C.3     0  <0>0        0.0310
     19  C14        8.5870   37.5290   58.5380 C.ar    0  <0>0       -0.0045
     20  C4         1.7660   33.6120   60.5900 C.2     0  <0>0        0.2459
     21  N1         0.5550   33.6730   61.1780 N.am    0  <0>0       -0.3009
     22  H8        -0.1630   34.1700   60.7570 H       0  <0>0        0.1497
     23  O1         2.6660   32.9880   61.1170 O.2     0  <0>0       -0.2701
     24  C3         0.3240   32.9880   62.4520 C.3     0  <0>0        0.0897
     25  C2        -0.2890   31.6110   62.1870 C.3     0  <0>0        0.0213
     26  C1        -0.6610   30.9550   63.5190 C.3     0  <0>0        0.0018
@<TRIPOS>BOND
     1    11    12    1
     2    11     8    1
     3    12    13    1
     4     7     5    1
     5     7     8    1
     6     4     5   ar
     7     4     3   ar
     8     5     6   ar
     9     8    10    2
    10     8     9    2
    11     3     2   ar
    12    13    14   ar
    13    13    19   ar
    14    14    15   ar
    15    19    17   ar
    16     6     1   ar
    17     2     1   ar
    18     1    20    1
    19    15    16   ar
    20    17    16   ar
    21    16    18    1
    22    20    23    2
    23    20    21   am
    24    22    21    1
    25    21    24    1
    26    25    24    1
    27    25    26    1
