@<TRIPOS>MOLECULE
ZINC27979422_replica-1.pdb
 22 24 0 0 0
SMALL
GASTEIGER

@<TRIPOS>ATOM
      1  C1         0.6550   25.3600   54.4250 C.3     0  <0>0        0.0322
      2  C2        -0.1370   26.3380   53.5950 C.ar    0  <0>0       -0.0088
      3  C3        -0.6080   26.1350   52.3550 C.ar    0  <0>0        0.0335
      4  N1        -1.2780   27.2480   51.9230 N.ar    0  <0>0       -0.3289
      5  C4        -1.2540   28.2190   52.8950 C.ar    0  <0>0        0.0594
      6  C5        -0.5380   27.6920   53.9880 C.ar    0  <0>0        0.0131
      7  C6        -0.3490   28.4620   55.1320 C.ar    0  <0>0        0.0057
      8  C7        -0.8750   29.7500   55.1840 C.ar    0  <0>0        0.0538
      9  C8        -1.5910   30.2600   54.0910 C.ar    0  <0>0        0.0060
     10  C9        -1.7710   29.5100   52.9670 C.ar    0  <0>0        0.0173
     11  C14       -1.9240   27.3840   50.6150 C.3     0  <0>0        0.1301
     12  C15       -0.4270   24.8700   51.5580 C.3     0  <0>0        0.0497
     13  C10       -0.6840   30.5780   56.3910 C.2     0  <0>0        0.2509
     14  O1        -1.5410   31.3730   56.7250 O.2     0  <0>0       -0.2698
     15  N2         0.4410   30.4520   57.1230 N.am    0  <0>0       -0.2606
     16  H7         1.2160   29.7320   56.8220 H       0  <0>0        0.1571
     17  C11        0.6210   31.2310   58.2600 C.ar    0  <0>0        0.1663
     18  S1         0.1410   30.9020   59.8950 S.2     0  <0>0       -0.0445
     19  C13        0.7690   32.4060   60.6290 C.ar    0  <0>0        0.0855
     20  C12        1.2900   33.0200   59.5380 C.ar    0  <0>0        0.1141
     21 Br          0.7190   32.9810   62.4290 Br      0  <0>0       -0.0402
     22  N3         1.2010   32.4100   58.3710 N.ar    0  <0>0       -0.2218
@<TRIPOS>BOND
     1    11     4    1
     2    12     3    1
     3     4     3   ar
     4     4     5   ar
     5     3     2   ar
     6     5    10   ar
     7     5     6   ar
     8    10     9   ar
     9     2     6   ar
    10     2     1    1
    11     6     7   ar
    12     9     8   ar
    13     7     8   ar
    14     8    13    1
    15    13    14    2
    16    13    15   am
    17    16    15    1
    18    15    17    1
    19    17    22   ar
    20    17    18   ar
    21    22    20   ar
    22    20    19   ar
    23    18    19   ar
    24    19    21    1
