@<TRIPOS>MOLECULE
ZINC62795444_replica-1.pdb
 20 21 0 0 0
SMALL
GASTEIGER

@<TRIPOS>ATOM
      1  C8         5.7270   35.6510   57.4090 C.ar    0  <0>0        0.0585
      2  C9         5.0250   35.1490   56.3180 C.ar    0  <0>0        0.0154
      3  C10        3.6480   35.1280   56.3320 C.ar    0  <0>0        0.0031
      4  C11        2.9540   35.6120   57.4460 C.ar    0  <0>0        0.0205
      5  C12        3.6630   36.1160   58.5420 C.ar    0  <0>0        0.0144
      6  C13        5.0390   36.1290   58.5220 C.ar    0  <0>0        0.0710
      7 Cl          5.9190   36.7480   59.8850 Cl      0  <0>0       -0.0810
      8  N1         7.1180   35.6710   57.3900 N.pl3   0  <0>0       -0.3068
      9  C3         7.8250   36.5180   56.4260 C.3     0  <0>0        0.0908
     10  C2         7.3800   37.9710   56.6000 C.3     0  <0>0        0.0214
     11  C1         8.5100   38.7780   57.2400 C.3     0  <0>0        0.0018
     12  C4         7.8750   34.8450   58.3330 C.3     0  <0>0        0.0907
     13  C5         9.2830   35.4220   58.4990 C.3     0  <0>0        0.0198
     14  C7         9.5520   36.2840   59.7350 C.3     0  <0>0        0.0018
     15  C6        10.1410   34.8740   59.6410 C.3     0  <0>0        0.0018
     16  C14        1.4820   35.5910   57.4640 C.2     0  <0>0        0.0781
     17  S1         0.6530   34.5040   58.4940 S.2     0  <0>0       -0.0352
     18  N2         0.7860   36.4300   56.6700 N.am    0  <0>0       -0.3517
     19  H18        1.2560   37.0460   56.0870 H       0  <0>0        0.1428
     20  H19       -0.1840   36.4160   56.6820 H       0  <0>0        0.1428
@<TRIPOS>BOND
     1    19    18    1
     2     2     3   ar
     3     2     1   ar
     4     3     4   ar
     5     9    10    1
     6     9     8    1
     7    10    11    1
     8    18    20    1
     9    18    16    1
    10     8     1    1
    11     8    12    1
    12     1     6   ar
    13     4    16    1
    14     4     5   ar
    15    16    17    2
    16    12    13    1
    17    13    15    1
    18    13    14    1
    19     6     5   ar
    20     6     7    1
    21    15    14    1
