@<TRIPOS>MOLECULE
ZINC11895704_replica-1.pdb
 25 27 0 0 0
SMALL
GASTEIGER

@<TRIPOS>ATOM
      1  C1        -1.2160   25.8280   51.1210 C.ar    0  <0>0        0.0000
      2  C2        -1.7650   27.1000   50.9700 C.ar    0  <0>0        0.0000
      3  C3        -1.5890   28.0560   51.9260 C.ar    0  <0>0        0.0001
      4  C4        -0.8490   27.7560   53.0760 C.ar    0  <0>0        0.0045
      5  C5        -0.2910   26.4650   53.2330 C.ar    0  <0>0        0.0002
      6  C6        -0.4910   25.5040   52.2270 C.ar    0  <0>0        0.0000
      7  C7         0.4520   26.1660   54.3890 C.ar    0  <0>0        0.0031
      8  C8         0.6400   27.1020   55.3560 C.ar    0  <0>0        0.0370
      9  C9         0.1090   28.3880   55.2470 C.ar    0  <0>0        0.1402
     10  C10       -0.6370   28.7510   54.1250 C.ar    0  <0>0        0.0564
     11  O2         0.3220   29.2900   56.2370 O.3     0  <0>0       -0.4714
     12  C12        0.0830   28.8540   57.5760 C.3     0  <0>0        0.2525
     13  C13       -0.5200   30.0030   58.3870 C.3     0  <0>0        0.2525
     14  O3         0.4690   30.5280   59.2760 O.3     0  <0>0       -0.4714
     15  C14        0.6740   31.8710   59.2460 C.ar    0  <0>0        0.1389
     16  C19        1.3230   32.4980   60.3000 C.ar    0  <0>0        0.0392
     17  C18        1.5360   33.8620   60.2670 C.ar    0  <0>0        0.0327
     18  C17        1.0910   34.6070   59.1870 C.ar    0  <0>0        0.1403
     19  C16        0.4380   33.9830   58.1380 C.ar    0  <0>0        0.0327
     20  F1         1.2940   35.9410   59.1580 F       0  <0>0       -0.2042
     21  C15        0.2300   32.6180   58.1650 C.ar    0  <0>0        0.0392
     22  C11       -1.1980   30.1050   54.0040 C.2     0  <0>0        0.1428
     23  N1        -2.2830   30.4150   54.6400 N.2     0  <0>0       -0.0846
     24  O1        -2.8500   29.5020   55.5630 O.2     0  <0>0       -0.4087
     25  H8        -2.3310   28.6960   55.6870 H       0  <0>0        0.3278
@<TRIPOS>BOND
     1     2     1   ar
     2     2     3   ar
     3     1     6   ar
     4     3     4   ar
     5     6     5   ar
     6     4     5   ar
     7     4    10   ar
     8     5     7   ar
     9    22    10    1
    10    22    23    2
    11    10     9   ar
    12     7     8   ar
    13    23    24    1
    14     9     8   ar
    15     9    11    1
    16    24    25    1
    17    11    12    1
    18    12    13    1
    19    19    21   ar
    20    19    18   ar
    21    21    15   ar
    22    13    14    1
    23    20    18    1
    24    18    17   ar
    25    15    14    1
    26    15    16   ar
    27    17    16   ar
