@<TRIPOS>MOLECULE
ZINC08042189_replica-1.pdb
 25 28 0 0 0
SMALL
GASTEIGER

@<TRIPOS>ATOM
      1  C10       -0.0240   30.5350   56.0270 C.2     0  <0>0        0.1225
      2  C11        0.1900   30.0890   57.3000 C.3     0  <0>0        0.1247
      3  S1         0.5440   31.6280   58.1380 S.3     0  <0>0       -0.0594
      4  C12        0.3720   32.7020   56.7200 C.2     0  <0>0        0.2110
      5  N2         0.0730   31.8370   55.7670 N.2     0  <0>0       -0.3842
      6  C5        -0.3540   29.5780   54.9430 C.ar    0  <0>0        0.0261
      7  C4        -1.1840   29.9670   53.8920 C.ar    0  <0>0        0.0035
      8  C3        -1.4900   29.0790   52.8850 C.ar    0  <0>0        0.0147
      9  C2        -0.9740   27.7830   52.9090 C.ar    0  <0>0        0.0504
     10  N1        -1.1400   26.7220   52.0170 N.am    0  <0>0       -0.2569
     11  C7        -0.1480   27.4020   53.9600 C.ar    0  <0>0        0.0007
     12  C1        -1.9540   26.7960   50.8020 C.3     0  <0>0        0.1200
     13  C9        -0.4670   25.6250   52.4010 C.2     0  <0>0        0.2338
     14  C8         0.2380   25.9650   53.6970 C.3     0  <0>0        0.1131
     15  O1        -0.4310   24.5610   51.8200 O.2     0  <0>0       -0.2742
     16  C6         0.1670   28.2830   54.9660 C.ar    0  <0>0       -0.0003
     17  N3         0.5150   34.0790   56.6410 N.pl3   0  <0>0       -0.2830
     18  H10       -0.2270   34.6260   56.3400 H       0  <0>0        0.1551
     19  C13        1.7290   34.6770   56.9930 C.ar    0  <0>0        0.0506
     20  C18        2.8420   34.5260   56.1750 C.ar    0  <0>0        0.0170
     21  C17        4.0400   35.1190   56.5240 C.ar    0  <0>0        0.0309
     22  C16        4.1320   35.8640   57.6870 C.ar    0  <0>0        0.1402
     23  C15        3.0230   36.0170   58.5030 C.ar    0  <0>0        0.0309
     24  F1         5.3030   36.4430   58.0260 F       0  <0>0       -0.2042
     25  C14        1.8220   35.4300   58.1560 C.ar    0  <0>0        0.0170
@<TRIPOS>BOND
     1    12    10    1
     2    15    13    2
     3    10    13   am
     4    10     9    1
     5    13    14    1
     6     8     9   ar
     7     8     7   ar
     8     9    11   ar
     9    14    11    1
    10     7     6   ar
    11    11    16   ar
    12     6    16   ar
    13     6     1    1
    14     5     1    2
    15     5     4    2
    16     1     2    1
    17    20    21   ar
    18    20    19   ar
    19    18    17    1
    20    21    22   ar
    21    17     4    1
    22    17    19    1
    23     4     3    1
    24    19    25   ar
    25     2     3    1
    26    22    24    1
    27    22    23   ar
    28    25    23   ar
