@<TRIPOS>MOLECULE
ZINC37777786_replica-1.pdb
 18 18 0 0 0
SMALL
GASTEIGER

@<TRIPOS>ATOM
      1  C5        10.2250   35.6210   60.5890 C.ar    0  <0>0        0.0465
      2  C6         9.6600   36.8860   60.4890 C.ar    0  <0>0        0.0288
      3  C7         8.8180   37.1860   59.4350 C.ar    0  <0>0        0.0938
      4  C8         8.5360   36.2230   58.4760 C.ar    0  <0>0        0.1652
      5  C9         9.0990   34.9580   58.5770 C.ar    0  <0>0        0.0938
      6  C10        9.9470   34.6600   59.6270 C.ar    0  <0>0        0.0288
      7 Cl          8.7450   33.7530   57.3780 Cl      0  <0>0       -0.0790
      8 Cl          8.1140   38.7670   59.3100 Cl      0  <0>0       -0.0790
      9  N1        11.0770   35.3180   61.6550 N.pl3   0  <0>0       -0.3340
     10  H10       11.1250   35.9090   62.4230 H       0  <0>0        0.1468
     11  C3        11.9020   34.1070   61.6130 C.3     0  <0>0        0.0691
     12  C4        11.2620   33.0230   62.4830 C.3     0  <0>0        0.0212
     13  C2        13.3020   34.4250   62.1420 C.3     0  <0>0        0.0195
     14  C1        13.9010   33.1720   62.7850 C.3     0  <0>0        0.0017
     15  O1         7.7070   36.5180   57.4390 O.3     0  <0>0       -0.4219
     16  C11        8.2870   37.1770   56.3120 C.3     0  <0>0        0.5087
     17  F1         8.5910   36.2320   55.3260 F       0  <0>0       -0.1550
     18  F2         7.3820   38.1120   55.7990 F       0  <0>0       -0.1550
@<TRIPOS>BOND
     1    17    16    1
     2    18    16    1
     3    16    15    1
     4     7     5    1
     5    15     4    1
     6     4     5   ar
     7     4     3   ar
     8     5     6   ar
     9     8     3    1
    10     3     2   ar
    11     6     1   ar
    12     2     1   ar
    13     1     9    1
    14    11     9    1
    15    11    13    1
    16    11    12    1
    17     9    10    1
    18    13    14    1
