@<TRIPOS>MOLECULE
ZINC58946671_replica-1.pdb
 20 21 0 0 0
SMALL
GASTEIGER

@<TRIPOS>ATOM
      1  C9        10.7480   35.8250   61.4160 C.2     0  <0>0        0.3415
      2  O2        10.8090   36.5520   62.3870 O.2     0  <0>0       -0.2449
      3  C6         9.9470   36.2260   60.2410 C.ar    0  <0>0        0.0756
      4  C5         9.3310   37.4780   60.2070 C.ar    0  <0>0        0.0062
      5  C4         8.5850   37.8470   59.1060 C.ar    0  <0>0       -0.0016
      6  C3         8.4470   36.9790   58.0370 C.ar    0  <0>0        0.0073
      7  C8         9.0510   35.7340   58.0670 C.ar    0  <0>0       -0.0016
      8  C7         9.8040   35.3550   59.1590 C.ar    0  <0>0        0.0062
      9  C2         7.6310   37.3880   56.8390 C.3     0  <0>0        0.1687
     10  O1         8.0470   36.6340   55.6990 O.3     0  <0>0       -0.3463
     11  C1         6.9700   36.0390   54.9720 C.3     0  <0>0        0.1746
     12  O3        11.4090   34.6510   61.4110 O.3     0  <0>0       -0.4404
     13  C10       12.5800   34.5630   62.2270 C.3     0  <0>0        0.2354
     14  C11       12.6570   33.1920   62.8460 C.ar    0  <0>0        0.0214
     15  C16       11.5230   32.4050   62.9270 C.ar    0  <0>0        0.0016
     16  C15       11.5950   31.1450   63.4900 C.ar    0  <0>0        0.0294
     17  C14       12.8000   30.6740   63.9810 C.ar    0  <0>0        0.1401
     18  C13       13.9340   31.4650   63.9040 C.ar    0  <0>0        0.0294
     19  F1        12.8690   29.4440   64.5350 F       0  <0>0       -0.2042
     20  C12       13.8620   32.7230   63.3370 C.ar    0  <0>0        0.0016
@<TRIPOS>BOND
     1    11    10    1
     2    10     9    1
     3     9     6    1
     4     6     7   ar
     5     6     5   ar
     6     7     8   ar
     7     5     4   ar
     8     8     3   ar
     9     4     3   ar
    10     3     1    1
    11    12     1    1
    12    12    13    1
    13     1     2    2
    14    13    14    1
    15    14    15   ar
    16    14    20   ar
    17    15    16   ar
    18    20    18   ar
    19    16    17   ar
    20    18    17   ar
    21    17    19    1
