@<TRIPOS>MOLECULE
ZINC17003458_replica-1.pdb
 29 32 0 0 0
SMALL
GASTEIGER

@<TRIPOS>ATOM
      1  C4        10.1840   35.2270   61.4070 C.3     0  <0>0        0.1686
      2  C5         9.9680   36.7600   61.3510 C.3     0  <0>0        0.0436
      3  C6         8.7020   36.9960   60.4800 C.3     0  <0>0        0.0038
      4  C7         8.0710   35.5990   60.3990 C.3     0  <0>0        0.0035
      5  C8         9.3100   34.6940   60.2490 C.3     0  <0>0        0.0369
      6  C9         8.9500   33.2350   60.3620 C.3     0  <0>0        0.0035
      7  C10        7.5650   32.9550   59.7580 C.3     0  <0>0        0.0004
      8  C11        7.2210   33.9890   58.6980 C.3     0  <0>0        0.0035
      9  C12        7.0390   35.3600   59.3470 C.3     0  <0>0        0.0007
     10  C13        6.9720   36.4010   58.2330 C.3     0  <0>0        0.0044
     11  C14        5.6240   36.2370   57.5310 C.3     0  <0>0        0.0226
     12  C15        5.1970   34.8000   57.4240 C.2     0  <0>0       -0.0360
     13  C16        3.9830   34.5740   56.8490 C.2     0  <0>0        0.0588
     14  C17        3.4930   33.1870   56.7330 C.2     0  <0>0        0.1785
     15  O3         2.5790   32.9420   55.9460 O.2     0  <0>0       -0.2908
     16  C18        4.0770   32.0650   57.5440 C.3     0  <0>0        0.0700
     17  C19        5.1500   32.5570   58.5120 C.3     0  <0>0        0.0119
     18  C20        6.0050   33.6330   57.8760 C.3     0  <0>0        0.0162
     19  C21        6.5830   33.0130   56.6010 C.3     0  <0>0        0.0041
     20  C24       10.0850   34.9710   58.9580 C.3     0  <0>0        0.0036
     21  O2        11.5720   34.8950   61.1640 O.3     0  <0>0       -0.4523
     22  C3        12.1720   34.0920   62.0560 C.2     0  <0>0        0.3169
     23  O1        11.5080   33.3610   62.7520 O.2     0  <0>0       -0.2501
     24  C2        13.6730   34.1020   62.1900 C.3     0  <0>0        0.1096
     25  C1        14.1130   32.9390   63.0810 C.3     0  <0>0        0.0122
     26  S1         3.0130   35.9340   56.2440 S.3     0  <0>0       -0.0480
     27  C22        1.6840   35.8540   57.3210 C.2     0  <0>0        0.2033
     28  O4         0.5510   35.8510   56.8860 O.2     0  <0>0       -0.2842
     29  C23        1.9220   35.7880   58.8070 C.3     0  <0>0        0.0849
@<TRIPOS>BOND
     1    15    14    2
     2    26    13    1
     3    26    27    1
     4    19    18    1
     5    14    13    1
     6    14    16    1
     7    13    12    2
     8    28    27    2
     9    27    29    1
    10    12    11    1
    11    12    18    1
    12    11    10    1
    13    16    17    1
    14    18    17    1
    15    18     8    1
    16    10     9    1
    17     8     9    1
    18     8     7    1
    19    20     5    1
    20     9     4    1
    21     7     6    1
    22     5     6    1
    23     5     4    1
    24     5     1    1
    25     4     3    1
    26     3     2    1
    27    21     1    1
    28    21    22    1
    29     2     1    1
    30    22    24    1
    31    22    23    2
    32    24    25    1
