@<TRIPOS>MOLECULE
ZINC01241942_replica-1.pdb
 22 25 0 0 0
SMALL
GASTEIGER

@<TRIPOS>ATOM
      1  C7        -0.1100   30.3540   56.1950 C.3     0  <0>0        0.1228
      2  C6         0.2110   31.5730   57.0210 C.2     0  <0>0        0.1295
      3  C5         0.3590   31.6010   58.3570 C.3     0  <0>0        0.1855
      4  N1         0.6510   32.9130   58.7220 N.pl3   0  <0>0       -0.2467
      5 Br          0.2050   30.1250   59.5270 Br      0  <0>0       -0.0516
      6  C2         0.9120   33.6260   59.8720 C.2     0  <0>0        0.0395
      7  C4         0.6510   33.6120   57.5450 C.2     0  <0>0        0.2184
      8  C1         0.9260   32.9150   61.2020 C.3     0  <0>0        0.0481
      9  C3         1.1510   34.9350   59.8240 C.2     0  <0>0        0.0496
     10  S1         1.0190   35.2690   58.0730 S.3     0  <0>0       -0.0383
     11  N2         0.3920   32.8160   56.5480 N.2     0  <0>0       -0.3854
     12  S2        -0.9260   30.8620   54.6620 S.3     0  <0>0       -0.0596
     13  C8        -0.9210   29.3310   53.7900 C.2     0  <0>0        0.2115
     14  N4        -0.2730   28.2550   54.1620 N.2     0  <0>0       -0.3796
     15  C14       -0.4870   27.2600   53.2620 C.2     0  <0>0        0.1464
     16  C9        -1.3310   27.7770   52.2660 C.2     0  <0>0        0.0765
     17  C13       -0.0480   25.9360   53.1730 C.2     0  <0>0        0.0292
     18  N3        -1.5910   29.0890   52.6230 N.pl3   0  <0>0       -0.2813
     19  C10       -1.7210   26.9740   51.2050 C.2     0  <0>0       -0.0042
     20  H1        -2.1620   29.7390   52.1210 H       0  <0>0        0.1551
     21  C11       -1.2840   25.6670   51.1340 C.3     0  <0>0        0.0535
     22  C12       -0.4460   25.1540   52.1130 C.2     0  <0>0       -0.0187
@<TRIPOS>BOND
     1    21    19    1
     2    21    22    1
     3    19    16    2
     4    22    17    2
     5    20    18    1
     6    16    18    1
     7    16    15    1
     8    18    13    1
     9    17    15    1
    10    15    14    2
    11    13    14    2
    12    13    12    1
    13    12     1    1
    14     1     2    1
    15    11     2    2
    16    11     7    2
    17     2     3    1
    18     7    10    1
    19     7     4    1
    20    10     9    1
    21     3     4    1
    22     3     5    1
    23     4     6    1
    24     9     6    2
    25     6     8    1
