@<TRIPOS>MOLECULE
ZINC62151929_replica-1.pdb
 19 20 0 0 0
SMALL
GASTEIGER

@<TRIPOS>ATOM
      1  C1        -0.3600   25.2090   51.7530 C.3     0  <0>0        0.0316
      2  C2        -0.4080   26.2910   52.8000 C.2     0  <0>0       -0.0140
      3  C3         0.2230   26.1010   53.9910 C.2     0  <0>0        0.0244
      4  C4         0.1830   27.1080   54.9720 C.2     0  <0>0        0.1159
      5  C5        -0.5210   28.3080   54.6970 C.3     0  <0>0        0.0998
      6  C6        -1.1580   28.4720   53.4620 C.2     0  <0>0       -0.0275
      7  C7        -1.0930   27.4750   52.5320 C.2     0  <0>0        0.0235
      8 Br         -1.9480   27.7010   50.8600 Br      0  <0>0       -0.0500
      9  C8        -1.9080   29.7430   53.1580 C.3     0  <0>0        0.0276
     10  C9        -0.5600   29.3230   55.6880 C.2     0  <0>0        0.0698
     11  C10        0.1000   29.0820   56.8880 C.2     0  <0>0        0.0305
     12  C11        0.7670   27.8720   57.0740 C.2     0  <0>0        0.1081
     13  N1         0.7940   26.9470   56.1480 N.2     0  <0>0       -0.4099
     14  C15       -1.2770   30.5920   55.4540 C.2     0  <0>0        0.3846
     15  O1        -0.6930   31.5390   54.9460 O.co2   0  <0>0       -0.2409
     16  O2        -2.4540   30.6960   55.7670 O.co2   0  <0>0       -0.2409
     17  C12        1.4780   27.6220   58.3790 C.3     0  <0>0        0.0524
     18  C13        1.7340   28.9570   59.0840 C.3     0  <0>0        0.0074
     19  C14        0.6100   26.7320   59.2710 C.3     0  <0>0        0.0074
@<TRIPOS>BOND
     1     8     7    1
     2     1     2    1
     3     7     2    1
     4     7     6    2
     5     2     3    2
     6     9     6    1
     7     6     5    1
     8     3     4    1
     9     5     4    1
    10     5    10    1
    11    15    14   ar
    12     4    13    2
    13    14    10    1
    14    14    16   ar
    15    10    11    2
    16    13    12    2
    17    11    12    1
    18    12    17    1
    19    17    18    1
    20    17    19    1
