@<TRIPOS>MOLECULE
ZINC36989364_replica-1.pdb
 23 25 0 0 0
SMALL
GASTEIGER

@<TRIPOS>ATOM
      1  N1        10.0680   34.4960   61.2280 N.pl3   0  <0>0       -0.3306
      2  H14        9.1940   34.3750   61.6290 H       0  <0>0        0.1471
      3  C4        10.2110   35.2990   60.0100 C.3     0  <0>0        0.0919
      4  C3         9.7280   36.7250   60.2810 C.3     0  <0>0        0.0241
      5  C2         8.6590   36.7030   61.3750 C.3     0  <0>0        0.0020
      6  C1         7.2910   37.0010   60.7580 C.3     0  <0>0        0.0001
      7  C5         9.3840   34.6900   58.9070 C.ar    0  <0>0       -0.0045
      8  C10        9.1110   35.4200   57.7640 C.ar    0  <0>0       -0.0018
      9  C9         8.3580   34.8600   56.7500 C.ar    0  <0>0        0.0111
     10  C8         7.8680   33.5730   56.8820 C.ar    0  <0>0        0.0577
     11  C7         8.1360   32.8460   58.0280 C.ar    0  <0>0        0.0111
     12 Cl          6.9160   32.8720   55.6110 Cl      0  <0>0       -0.0822
     13  C6         8.8950   33.4040   59.0390 C.ar    0  <0>0       -0.0018
     14  C11       11.1930   33.9020   61.8090 C.ar    0  <0>0        0.0450
     15  C16       11.0760   32.6800   62.4420 C.ar    0  <0>0        0.0174
     16  C15       12.2070   32.0900   63.0160 C.ar    0  <0>0        0.0391
     17  C14       13.4490   32.7520   62.9520 C.ar    0  <0>0        0.0754
     18  C17       12.4430   30.8440   63.7380 C.ar    0  <0>0        0.1214
     19  C13       13.5380   33.9860   62.3130 C.ar    0  <0>0        0.0198
     20  N3        14.3570   31.9490   63.5940 N.ar    0  <0>0       -0.2757
     21  C12       12.4290   34.5500   61.7520 C.ar    0  <0>0        0.0158
     22  N2        13.7070   30.8010   64.0560 N.ar    0  <0>0       -0.1711
     23  H2        15.3000   32.1460   63.7090 H       0  <0>0        0.1889
@<TRIPOS>BOND
     1    12    10    1
     2     9    10   ar
     3     9     8   ar
     4    10    11   ar
     5     8     7   ar
     6    11    13   ar
     7     7    13   ar
     8     7     3    1
     9     3     4    1
    10     3     1    1
    11     4     5    1
    12     6     5    1
    13     1     2    1
    14     1    14    1
    15    21    14   ar
    16    21    19   ar
    17    14    15   ar
    18    19    17   ar
    19    15    16   ar
    20    17    16   ar
    21    17    20   ar
    22    16    18   ar
    23    20    23    1
    24    20    22   ar
    25    18    22   ar
