@<TRIPOS>MOLECULE
ZINC11114863_replica-1.pdb
 27 29 0 0 0
SMALL
GASTEIGER

@<TRIPOS>ATOM
      1  C10        0.6670   31.1400   55.9260 C.2     0  <0>0        0.2429
      2  O1        -0.1610   31.8400   55.3830 O.2     0  <0>0       -0.2732
      3  N2         1.8210   31.6790   56.3670 N.am    0  <0>0       -0.2968
      4  H14        2.4830   31.1200   56.8010 H       0  <0>0        0.1500
      5  C11        2.0760   33.1110   56.1890 C.3     0  <0>0        0.1230
      6  C12        3.5420   33.3310   55.9180 C.ar    0  <0>0        0.0002
      7  C17        3.9370   34.1370   54.8680 C.ar    0  <0>0       -0.0023
      8  C16        5.2830   34.3380   54.6190 C.ar    0  <0>0       -0.0003
      9  C15        6.2320   33.7340   55.4220 C.ar    0  <0>0       -0.0000
     10  C14        5.8360   32.9290   56.4740 C.ar    0  <0>0       -0.0003
     11  C13        4.4910   32.7300   56.7240 C.ar    0  <0>0       -0.0023
     12  C18        1.6800   33.8500   57.4410 C.ar    0  <0>0        0.0292
     13  S1         0.7360   33.2670   58.8390 S.2     0  <0>0       -0.0888
     14  C21        0.7640   34.7690   59.8050 C.ar    0  <0>0        0.0352
     15  C20        1.4790   35.6020   59.0090 C.ar    0  <0>0        0.0072
     16  C19        1.9530   35.1290   57.7990 C.ar    0  <0>0        0.0046
     17  C9         0.4050   29.6670   56.1090 C.3     0  <0>0        0.1736
     18  N1        -0.7530   29.2740   55.3020 N.pl3   0  <0>0       -0.3255
     19  H11       -1.6030   29.7260   55.4210 H       0  <0>0        0.1472
     20  C6        -0.6330   28.2470   54.3620 C.ar    0  <0>0        0.0406
     21  C5         0.1040   27.1090   54.6650 C.ar    0  <0>0        0.0140
     22  C4         0.2200   26.0960   53.7340 C.ar    0  <0>0        0.0009
     23  C3        -0.3970   26.2140   52.5010 C.ar    0  <0>0       -0.0045
     24  C2        -1.1310   27.3460   52.1970 C.ar    0  <0>0       -0.0246
     25  C1        -1.8000   27.4690   50.8530 C.3     0  <0>0        0.0307
     26  C7        -1.2560   28.3600   53.1260 C.ar    0  <0>0       -0.0127
     27  C8        -2.0610   29.5900   52.7960 C.3     0  <0>0        0.0320
@<TRIPOS>BOND
     1    25    24    1
     2    24    23   ar
     3    24    26   ar
     4    23    22   ar
     5    27    26    1
     6    26    20   ar
     7    22    21   ar
     8    20    21   ar
     9    20    18    1
    10     8     7   ar
    11     8     9   ar
    12     7     6   ar
    13    18    19    1
    14    18    17    1
    15     2     1    2
    16     9    10   ar
    17     6     5    1
    18     6    11   ar
    19     1    17    1
    20     1     3   am
    21     5     3    1
    22     5    12    1
    23     3     4    1
    24    10    11   ar
    25    12    16   ar
    26    12    13   ar
    27    16    15   ar
    28    13    14   ar
    29    15    14   ar
