@<TRIPOS>MOLECULE
ZINC66541306_replica-1.pdb
 26 28 0 0 0
SMALL
GASTEIGER

@<TRIPOS>ATOM
      1  C4         3.1230   34.6230   59.2280 C.3     0  <0>0        0.0750
      2  C5         4.5750   34.9260   59.6010 C.3     0  <0>0        0.0234
      3  C6         5.0930   36.0770   58.7360 C.3     0  <0>0        0.0453
      4  C7         5.0180   35.6810   57.2600 C.3     0  <0>0        0.1690
      5  C8         3.5650   35.3770   56.8880 C.3     0  <0>0        0.0453
      6  C9         3.0470   34.2260   57.7530 C.3     0  <0>0        0.0234
      7  O3         5.5020   36.7550   56.4530 O.3     0  <0>0       -0.4520
      8  C10        6.6430   36.5460   55.7800 C.2     0  <0>0        0.3214
      9  O4         6.7290   35.6190   55.0090 O.2     0  <0>0       -0.2497
     10  C11        7.8190   37.4680   55.9830 C.3     0  <0>0        0.1359
     11  C12        8.3490   37.3030   57.3840 C.ar    0  <0>0       -0.0114
     12  C17        8.8650   36.0880   57.7900 C.ar    0  <0>0       -0.0083
     13  C16        9.3590   35.9340   59.0740 C.ar    0  <0>0       -0.0264
     14  C15        9.3240   36.9980   59.9570 C.ar    0  <0>0       -0.0261
     15  C18        9.9720   34.7270   59.7520 C.3     0  <0>0        0.0264
     16  C14        8.8010   38.2140   59.5490 C.ar    0  <0>0       -0.0049
     17  C20        9.9110   36.5790   61.2870 C.3     0  <0>0        0.0264
     18  C13        8.3150   38.3670   58.2670 C.ar    0  <0>0       -0.0041
     19  C19       10.7040   35.2880   60.9900 C.3     0  <0>0        0.0093
     20  N1         2.6260   33.5200   60.0560 N.am    0  <0>0       -0.2723
     21  C3         1.4090   33.6020   60.6280 C.2     0  <0>0        0.4016
     22  O2         0.7220   34.5910   60.4570 O.2     0  <0>0       -0.2264
     23  H6         3.1740   32.7310   60.1930 H       0  <0>0        0.1527
     24  O1         0.9530   32.5890   61.3880 O.3     0  <0>0       -0.4347
     25  C2         0.1850   32.9390   62.5420 C.3     0  <0>0        0.2102
     26  C1        -0.4500   31.6790   63.1340 C.3     0  <0>0        0.0513
@<TRIPOS>BOND
     1     9     8    2
     2     8    10    1
     3     8     7    1
     4    10    11    1
     5     7     4    1
     6     5     4    1
     7     5     6    1
     8     4     3    1
     9    11    12   ar
    10    11    18   ar
    11     6     1    1
    12    12    13   ar
    13    18    16   ar
    14     3     2    1
    15    13    15    1
    16    13    14   ar
    17     1     2    1
    18     1    20    1
    19    16    14   ar
    20    15    19    1
    21    14    17    1
    22    20    23    1
    23    20    21   am
    24    22    21    2
    25    21    24    1
    26    19    17    1
    27    24    25    1
    28    25    26    1
