@<TRIPOS>MOLECULE
ZINC52252500_replica-1.pdb
 20 20 0 0 0
SMALL
GASTEIGER

@<TRIPOS>ATOM
      1  C7         8.0920   37.1790   58.3180 C.3     0  <0>0        0.1191
      2  C8         7.4290   38.4320   58.8930 C.3     0  <0>0        0.0345
      3  C4         7.0180   36.1410   57.9820 C.3     0  <0>0        0.1274
      4  C2         5.7460   36.4520   58.7730 C.3     0  <0>0        0.0132
      5  C1         4.5340   35.8880   58.0300 C.3     0  <0>0        0.0007
      6  C3         5.8370   35.8090   60.1590 C.3     0  <0>0        0.0007
      7  C5         6.7170   36.1900   56.5060 C.2     0  <0>0        0.3192
      8  O1         6.1080   37.1250   56.0440 O.2     0  <0>0       -0.2500
      9  O2         7.1280   35.1940   55.7060 O.3     0  <0>0       -0.4443
     10  C6         6.8020   33.8630   56.1080 C.3     0  <0>0        0.2556
     11  C9         9.0450   36.6040   59.3330 C.ar    0  <0>0        0.0299
     12  C14        9.6660   35.3900   59.0930 C.ar    0  <0>0        0.1405
     13  C13       10.5460   34.8660   60.0240 C.ar    0  <0>0        0.0590
     14  F1         9.4160   34.7200   57.9460 F       0  <0>0       -0.2044
     15  C12       10.7960   35.5510   61.2000 C.ar    0  <0>0        0.1424
     16  C11       10.1700   36.7630   61.4420 C.ar    0  <0>0        0.0295
     17  F2        11.6510   35.0370   62.1110 F       0  <0>0       -0.2041
     18  C10        9.2960   37.2880   60.5090 C.ar    0  <0>0        0.0025
     19  O3         8.8100   37.5220   57.1310 O.3     0  <0>0       -0.3821
     20  H18        9.1760   38.4170   57.1390 H       0  <0>0        0.2107
@<TRIPOS>BOND
     1     9    10    1
     2     9     7    1
     3     8     7    2
     4     7     3    1
     5    19    20    1
     6    19     1    1
     7    14    12    1
     8     3     1    1
     9     3     4    1
    10     5     4    1
    11     1     2    1
    12     1    11    1
    13     4     6    1
    14    12    11   ar
    15    12    13   ar
    16    11    18   ar
    17    13    15   ar
    18    18    16   ar
    19    15    16   ar
    20    15    17    1
