@<TRIPOS>MOLECULE
ZINC41503507_replica-1.pdb
 30 33 0 0 0
SMALL
GASTEIGER

@<TRIPOS>ATOM
      1  C1        -1.5860   27.9060   59.4460 C.3     0  <0>0        0.0313
      2  C2        -1.2870   28.8740   58.3310 C.ar    0  <0>0       -0.0127
      3  C3        -1.7780   28.6460   57.0760 C.ar    0  <0>0        0.0330
      4  C4        -1.5020   29.5380   56.0440 C.ar    0  <0>0        0.1418
      5  C5        -0.7290   30.6640   56.2740 C.ar    0  <0>0        0.0744
      6  C6        -0.2210   30.9120   57.5430 C.ar    0  <0>0        0.1513
      7  C7        -0.5100   30.0070   58.5780 C.ar    0  <0>0        0.0728
      8  C8         0.1490   30.5340   59.7870 C.2     0  <0>0        0.2324
      9  O1         0.1520   30.0500   60.9050 O.2     0  <0>0       -0.2832
     10  C9         0.8010   31.7730   59.3410 C.2     0  <0>0        0.1841
     11  C10        1.5370   32.6150   60.1120 C.2     0  <0>0        0.0438
     12  O3         0.5450   31.9180   58.0190 O.3     0  <0>0       -0.4501
     13  O4        -1.9960   29.3030   54.8020 O.3     0  <0>0       -0.4705
     14  C18       -1.0830   29.4230   53.7080 C.3     0  <0>0        0.2328
     15  C19       -0.9940   28.1050   52.9820 C.ar    0  <0>0        0.0319
     16  C24       -0.1920   27.0940   53.4820 C.ar    0  <0>0        0.0594
     17  C23       -0.1140   25.8820   52.8190 C.ar    0  <0>0        0.0408
     18 Cl          0.7090   27.3430   54.9440 Cl      0  <0>0       -0.0824
     19  C22       -0.8300   25.6860   51.6510 C.ar    0  <0>0        0.1410
     20  C21       -1.6270   26.7010   51.1500 C.ar    0  <0>0        0.0295
     21  F1        -0.7510   24.5040   51.0010 F       0  <0>0       -0.2041
     22  C20       -1.7090   27.9080   51.8150 C.ar    0  <0>0        0.0025
     23  C11        2.2260   33.7560   59.5000 C.ar    0  <0>0        0.0371
     24  C16        3.5860   33.6610   59.1570 C.ar    0  <0>0        0.1387
     25  C15        4.2240   34.7430   58.5740 C.ar    0  <0>0        0.0369
     26  C14        3.5300   35.9150   58.3420 C.ar    0  <0>0        0.0031
     27  C13        2.1910   36.0170   58.6830 C.ar    0  <0>0        0.0002
     28  C12        1.5360   34.9500   59.2580 C.ar    0  <0>0        0.0031
     29  O2         4.2680   32.5110   59.3910 O.3     0  <0>0       -0.4714
     30  C17        4.5770   31.7000   58.2560 C.3     0  <0>0        0.2525
@<TRIPOS>BOND
     1    21    19    1
     2    20    19   ar
     3    20    22   ar
     4    19    17   ar
     5    22    15   ar
     6    17    16   ar
     7    15    16   ar
     8    15    14    1
     9    16    18    1
    10    14    13    1
    11    13     4    1
    12     4     5   ar
    13     4     3   ar
    14     5     6   ar
    15     3     2   ar
    16     6    12    1
    17     6     7   ar
    18    12    10    1
    19    30    29    1
    20     2     7   ar
    21     2     1    1
    22    26    25   ar
    23    26    27   ar
    24    25    24   ar
    25     7     8    1
    26    27    28   ar
    27    24    29    1
    28    24    23   ar
    29    28    23   ar
    30    10     8    1
    31    10    11    2
    32    23    11    1
    33     8     9    2
