@<TRIPOS>MOLECULE
ZINC01707167_replica-1.pdb
 24 27 0 0 0
SMALL
GASTEIGER

@<TRIPOS>ATOM
      1  C7         7.5370   35.5740   58.1810 C.ar    0  <0>0        0.0363
      2  C8         7.0120   36.1370   57.0280 C.ar    0  <0>0        0.0753
      3  N1         7.8150   37.1840   56.6870 N.ar    0  <0>0       -0.2757
      4  H1         7.6900   37.7860   55.8980 H       0  <0>0        0.1889
      5  N2         8.8450   37.2730   57.6310 N.ar    0  <0>0       -0.1727
      6  C9         8.6870   36.3250   58.5270 C.ar    0  <0>0        0.1020
      7  C4         6.9940   34.4090   58.9170 C.ar    0  <0>0        0.0029
      8  C3         7.2850   33.1130   58.4880 C.ar    0  <0>0        0.0001
      9  C2         6.7770   32.0310   59.1780 C.ar    0  <0>0        0.0000
     10  C1         5.9800   32.2300   60.2910 C.ar    0  <0>0        0.0000
     11  C6         5.6890   33.5120   60.7200 C.ar    0  <0>0        0.0000
     12  C5         6.1910   34.6020   60.0400 C.ar    0  <0>0        0.0001
     13  C10        9.5640   36.0800   59.6980 C.ar    0  <0>0        0.0194
     14  C15       10.3360   34.9220   59.7630 C.ar    0  <0>0        0.0016
     15  C14       11.1500   34.6990   60.8550 C.ar    0  <0>0        0.0000
     16  C13       11.2010   35.6240   61.8840 C.ar    0  <0>0        0.0000
     17  C12       10.4360   36.7750   61.8240 C.ar    0  <0>0        0.0000
     18  C11        9.6220   37.0100   60.7350 C.ar    0  <0>0        0.0016
     19  C16        5.8050   35.6860   56.3040 C.ar    0  <0>0        0.0171
     20  C21        5.9280   34.9200   55.1430 C.ar    0  <0>0        0.0015
     21  C20        4.7970   34.5020   54.4730 C.ar    0  <0>0        0.0000
     22  C19        3.5430   34.8410   54.9490 C.ar    0  <0>0        0.0000
     23  C18        3.4140   35.6000   56.0980 C.ar    0  <0>0        0.0000
     24  C17        4.5370   36.0190   56.7810 C.ar    0  <0>0        0.0015
@<TRIPOS>BOND
     1    21    22   ar
     2    21    20   ar
     3    22    23   ar
     4    20    19   ar
     5     4     3    1
     6    23    24   ar
     7    19    24   ar
     8    19     2    1
     9     3     2   ar
    10     3     5   ar
    11     2     1   ar
    12     5     6   ar
    13     1     6   ar
    14     1     7    1
    15     8     7   ar
    16     8     9   ar
    17     6    13    1
    18     7    12   ar
    19     9    10   ar
    20    13    14   ar
    21    13    18   ar
    22    14    15   ar
    23    12    11   ar
    24    10    11   ar
    25    18    17   ar
    26    15    16   ar
    27    17    16   ar
