@<TRIPOS>MOLECULE
ZINC02150695_replica-1.pdb
 36 41 0 0 0
SMALL
GASTEIGER

@<TRIPOS>ATOM
      1  C8        -0.4850   30.6230   57.6990 C.2     0  <0>0       -0.0074
      2  C9         0.3050   31.7820   57.9840 C.3     0  <0>0        0.1168
      3  C10        0.6640   32.8240   57.1090 C.2     0  <0>0        0.0389
      4  C11        1.4420   33.8660   57.5820 C.2     0  <0>0        0.0799
      5  S1         1.7050   33.4220   59.2890 S.3     0  <0>0       -0.0550
      6  C12        0.7880   31.8980   59.3100 C.2     0  <0>0        0.1476
      7  N1         0.5390   31.0070   60.2420 N.2     0  <0>0       -0.3958
      8  C13       -0.1880   29.9280   60.0020 C.2     0  <0>0        0.1700
      9  C14       -0.7230   29.7030   58.7210 C.2     0  <0>0        0.0297
     10  C15       -1.4860   28.4300   58.7420 C.ar    0  <0>0        0.0054
     11  C16       -2.1980   27.7610   57.7550 C.ar    0  <0>0        0.0002
     12  C17       -2.8250   26.5620   58.0460 C.ar    0  <0>0        0.0000
     13  C18       -2.7600   26.0270   59.3190 C.ar    0  <0>0        0.0001
     14  C19       -2.0560   26.6790   60.3150 C.ar    0  <0>0        0.0033
     15  C20       -1.4150   27.8830   60.0360 C.ar    0  <0>0        0.0416
     16  C21       -0.6040   28.7960   60.8710 C.2     0  <0>0        0.2248
     17  O2        -0.3280   28.6480   62.0440 O.2     0  <0>0       -0.2838
     18  C5        -1.0370   30.4040   56.3460 C.ar    0  <0>0       -0.0029
     19  C4        -0.2830   29.7310   55.3820 C.ar    0  <0>0        0.0028
     20  C3        -0.8020   29.5290   54.1210 C.ar    0  <0>0        0.0369
     21  C2        -2.0730   29.9940   53.8090 C.ar    0  <0>0        0.1387
     22  C7        -2.8250   30.6660   54.7640 C.ar    0  <0>0        0.0369
     23  C6        -2.3160   30.8660   56.0290 C.ar    0  <0>0        0.0028
     24  O1        -2.5810   29.7940   52.5650 O.3     0  <0>0       -0.4714
     25  C1        -2.1000   28.6600   51.8420 C.3     0  <0>0        0.2525
     26  N2         0.2430   32.8050   55.7880 N.pl3   0  <0>0       -0.3592
     27  H17        0.0440   33.6370   55.3300 H       0  <0>0        0.1421
     28  H18        0.1450   31.9610   55.3210 H       0  <0>0        0.1421
     29  C22        1.9140   35.0050   56.8830 C.2     0  <0>0        0.2024
     30  O3         1.1970   35.9810   56.7550 O.2     0  <0>0       -0.2860
     31  C23        3.2780   35.0090   56.3110 C.ar    0  <0>0        0.0395
     32  C28        3.5970   34.1580   55.2510 C.ar    0  <0>0        0.0032
     33  C27        4.8720   34.1670   54.7230 C.ar    0  <0>0        0.0001
     34  C26        5.8320   35.0180   55.2400 C.ar    0  <0>0        0.0000
     35  C25        5.5230   35.8650   56.2900 C.ar    0  <0>0        0.0001
     36  C24        4.2500   35.8700   56.8240 C.ar    0  <0>0        0.0032
@<TRIPOS>BOND
     1    25    24    1
     2    24    21    1
     3    21    20   ar
     4    21    22   ar
     5    20    19   ar
     6    33    34   ar
     7    33    32   ar
     8    22    23   ar
     9    34    35   ar
    10    32    31   ar
    11    28    26    1
    12    27    26    1
    13    19    18   ar
    14    26     3    1
    15    23    18   ar
    16    35    36   ar
    17    31    36   ar
    18    31    29    1
    19    18     1    1
    20    30    29    2
    21    29     4    1
    22     3     4    2
    23     3     2    1
    24     4     5    1
    25     1     2    1
    26     1     9    2
    27    11    12   ar
    28    11    10   ar
    29     2     6    1
    30    12    13   ar
    31     9    10    1
    32     9     8    1
    33    10    15   ar
    34     5     6    1
    35     6     7    2
    36    13    14   ar
    37     8     7    2
    38     8    16    1
    39    15    14   ar
    40    15    16    1
    41    16    17    2
