@<TRIPOS>MOLECULE
ZINC13388339_replica-1.pdb
 24 25 0 0 0
SMALL
GASTEIGER

@<TRIPOS>ATOM
      1  C3         7.2960   36.7230   56.6300 C.2     0  <0>0        0.2629
      2  O1         6.9520   37.3000   55.6200 O.2     0  <0>0       -0.2712
      3  N1         6.6650   35.5940   57.0080 N.am    0  <0>0       -0.2983
      4  H6         6.9390   35.1330   57.8160 H       0  <0>0        0.1498
      5  C2         8.4310   37.2670   57.4600 C.3     0  <0>0        0.2411
      6  C1         8.6350   38.7480   57.1350 C.3     0  <0>0        0.0574
      7  O3         8.1180   37.1230   58.8470 O.3     0  <0>0       -0.4700
      8  C11        9.0600   36.5370   59.6330 C.ar    0  <0>0        0.1391
      9  C16        9.4100   37.1160   60.8450 C.ar    0  <0>0        0.0374
     10  C15       10.3670   36.5190   61.6420 C.ar    0  <0>0        0.0098
     11  C14       10.9770   35.3460   61.2330 C.ar    0  <0>0        0.0348
     12  C13       10.6290   34.7690   60.0250 C.ar    0  <0>0        0.0098
     13 Br         12.2890   34.5330   62.3260 Br      0  <0>0       -0.0490
     14  C12        9.6670   35.3580   59.2280 C.ar    0  <0>0        0.0374
     15  C4         5.5630   35.0660   56.2010 C.3     0  <0>0        0.1114
     16  C5         5.7060   33.5470   56.0740 C.3     0  <0>0        0.1386
     17  C6         6.7950   33.0670   56.9990 C.2     0  <0>0        0.3669
     18  O2         6.5340   32.7800   58.1430 O.co2   0  <0>0       -0.2456
     19  O4         8.0550   32.9510   56.5490 O.co2   0  <0>0       -0.2456
     20  C7         4.2510   35.3920   56.8660 C.ar    0  <0>0        0.0256
     21  S1         3.7780   35.1950   58.5760 S.2     0  <0>0       -0.0891
     22  C10        2.1090   35.8200   58.4490 C.ar    0  <0>0        0.0352
     23  C9         2.0240   36.1260   57.1320 C.ar    0  <0>0        0.0072
     24  C8         3.1220   35.9070   56.3200 C.ar    0  <0>0        0.0043
@<TRIPOS>BOND
     1     2     1    2
     2    16    15    1
     3    16    17    1
     4    15    20    1
     5    15     3    1
     6    24    20   ar
     7    24    23   ar
     8    19    17   ar
     9     1     3   am
    10     1     5    1
    11    20    21   ar
    12    17    18   ar
    13     3     4    1
    14    23    22   ar
    15     6     5    1
    16     5     7    1
    17    22    21   ar
    18     7     8    1
    19    14     8   ar
    20    14    12   ar
    21     8     9   ar
    22    12    11   ar
    23     9    10   ar
    24    11    10   ar
    25    11    13    1
