@<TRIPOS>MOLECULE
ZINC05219290_replica-1.pdb
 20 22 0 0 0
SMALL
GASTEIGER

@<TRIPOS>ATOM
      1  C2         2.4390   35.7670   58.3310 C.ar    0  <0>0        0.1418
      2  C3         2.2990   35.7120   56.9460 C.ar    0  <0>0        0.0372
      3  C4         3.4020   35.7580   56.1420 C.ar    0  <0>0        0.0095
      4  C5         4.6720   35.8610   56.7110 C.ar    0  <0>0        0.0767
      5  C6         4.8260   35.9170   58.1060 C.ar    0  <0>0        0.1516
      6  C7         3.6930   35.8690   58.9090 C.ar    0  <0>0        0.0744
      7  O2         6.1370   36.0150   58.4170 O.3     0  <0>0       -0.4500
      8  C8         6.9170   36.0300   57.3110 C.2     0  <0>0        0.1840
      9  C9         8.2710   36.1190   57.2850 C.2     0  <0>0        0.0408
     10  C16        6.0300   35.9370   56.1400 C.2     0  <0>0        0.2327
     11  O3         6.3460   35.9250   54.9630 O.2     0  <0>0       -0.2832
     12  C10        9.0320   36.0950   58.5410 C.ar    0  <0>0        0.0032
     13  C15        9.0050   37.2000   59.4020 C.ar    0  <0>0        0.0006
     14  C14        9.7220   37.1700   60.5780 C.ar    0  <0>0        0.0067
     15  C13       10.4700   36.0520   60.9110 C.ar    0  <0>0        0.0346
     16  C12       10.5010   34.9550   60.0650 C.ar    0  <0>0        0.0067
     17 Br         11.4500   36.0220   62.5270 Br      0  <0>0       -0.0490
     18  C11        9.7900   34.9690   58.8850 C.ar    0  <0>0        0.0006
     19  O1         1.3360   35.7200   59.1210 O.3     0  <0>0       -0.4713
     20  C1         1.0570   34.4770   59.7710 C.3     0  <0>0        0.2525
@<TRIPOS>BOND
     1    11    10    2
     2    10     4    1
     3    10     8    1
     4     3     4   ar
     5     3     2   ar
     6     4     5   ar
     7     2     1   ar
     8     9     8    2
     9     9    12    1
    10     8     7    1
    11     5     7    1
    12     5     6   ar
    13     1     6   ar
    14     1    19    1
    15    12    18   ar
    16    12    13   ar
    17    18    16   ar
    18    19    20    1
    19    13    14   ar
    20    16    15   ar
    21    14    15   ar
    22    15    17    1
