@<TRIPOS>MOLECULE
ZINC24714296_replica-1.pdb
 24 26 0 0 0
SMALL
GASTEIGER

@<TRIPOS>ATOM
      1  N1        -0.2650   29.0760   55.3980 N.am    0  <0>0       -0.2806
      2  C8        -1.0460   29.0320   56.4960 C.2     0  <0>0        0.2494
      3  O1        -1.8810   28.1520   56.6140 O.2     0  <0>0       -0.2698
      4  H7         0.4240   29.9200   55.2470 H       0  <0>0        0.1552
      5  C9        -0.8970   30.0040   57.5060 C.2     0  <0>0        0.0555
      6  C10        0.3100   30.1780   58.1110 C.2     0  <0>0        0.0051
      7  C11        0.4590   31.1500   59.1190 C.3     0  <0>0        0.1503
      8  N3         0.5940   32.5370   58.9310 N.pl3   0  <0>0       -0.2478
      9  C13        0.7120   33.0480   60.1930 C.2     0  <0>0        0.2179
     10  C14        0.6370   33.4290   57.8870 C.2     0  <0>0        0.0706
     11  N2         0.6540   32.0950   61.0890 N.2     0  <0>0       -0.3869
     12  S1         0.8850   34.7920   59.8940 S.3     0  <0>0       -0.0428
     13  C12        0.4970   30.9240   60.4830 C.2     0  <0>0        0.1118
     14  C17        0.3880   29.5830   61.1620 C.3     0  <0>0        0.0637
     15  C15        0.7900   34.7360   58.1110 C.2     0  <0>0        0.0261
     16  C16        0.8620   35.8680   57.1180 C.3     0  <0>0        0.0396
     17  C7        -0.3320   28.0500   54.4510 C.ar    0  <0>0        0.0465
     18  C2        -1.0590   28.2280   53.2810 C.ar    0  <0>0       -0.0079
     19  C1        -1.7780   29.5290   53.0310 C.3     0  <0>0        0.0323
     20  C3        -1.1190   27.2150   52.3450 C.ar    0  <0>0        0.0037
     21  C4        -0.4640   26.0180   52.5760 C.ar    0  <0>0        0.0343
     22  C5         0.2570   25.8360   53.7430 C.ar    0  <0>0        0.0079
     23 Br         -0.5540   24.6300   51.2950 Br      0  <0>0       -0.0490
     24  C6         0.3240   26.8470   54.6800 C.ar    0  <0>0        0.0149
@<TRIPOS>BOND
     1    23    21    1
     2    20    21   ar
     3    20    18   ar
     4    21    22   ar
     5    19    18    1
     6    18    17   ar
     7    22    24   ar
     8    17    24   ar
     9    17     1    1
    10     4     1    1
    11     1     2   am
    12     2     3    2
    13     2     5    1
    14    16    15    1
    15     5     6    2
    16    10    15    2
    17    10     8    1
    18    15    12    1
    19     6     7    1
    20     8     7    1
    21     8     9    1
    22     7    13    1
    23    12     9    1
    24     9    11    2
    25    13    11    2
    26    13    14    1
