@<TRIPOS>MOLECULE
ZINC09528310_replica-1.pdb
 24 26 0 0 0
SMALL
GASTEIGER

@<TRIPOS>ATOM
      1  C4         8.2970   35.8150   58.7740 C.3     0  <0>0        0.1150
      2  C5         7.8100   36.0910   57.3710 C.ar    0  <0>0        0.0554
      3  C6         8.4580   36.7340   56.3900 C.ar    0  <0>0        0.0159
      4  C7         7.6070   36.7530   55.2650 C.ar    0  <0>0        0.0199
      5  C8         6.4690   36.1130   55.6080 C.ar    0  <0>0        0.0758
      6  N1         6.5850   35.6990   56.8990 N.ar    0  <0>0       -0.3263
      7  C9         5.5900   34.9540   57.6790 C.3     0  <0>0        0.1273
      8  C10        5.9100   35.0950   59.1710 C.3     0  <0>0        0.1197
      9  N2         7.3470   34.8660   59.3830 N.am    0  <0>0       -0.2587
     10  C11        7.7820   33.8190   60.1120 C.2     0  <0>0        0.3045
     11  O1         6.9900   32.9950   60.5250 O.2     0  <0>0       -0.2526
     12  N3         9.0960   33.6860   60.3840 N.am    0  <0>0       -0.2847
     13  H16        9.7360   34.3020   59.9950 H       0  <0>0        0.1513
     14  C2         8.3280   37.1130   59.5820 C.3     0  <0>0        0.0240
     15  C1         9.5790   37.1370   60.4640 C.3     0  <0>0        0.0021
     16  C3         8.3560   38.3080   58.6270 C.3     0  <0>0        0.0021
     17  C12        9.5570   32.6110   61.2660 C.3     0  <0>0        0.1177
     18  C13       10.8590   33.0120   61.9080 C.ar    0  <0>0       -0.0024
     19  C18       11.5440   32.1110   62.7030 C.ar    0  <0>0       -0.0003
     20  C17       12.7390   32.4770   63.2920 C.ar    0  <0>0        0.0294
     21  C16       13.2510   33.7470   63.0870 C.ar    0  <0>0        0.1401
     22  C15       12.5640   34.6490   62.2920 C.ar    0  <0>0        0.0294
     23  F1        14.4190   34.1060   63.6630 F       0  <0>0       -0.2042
     24  C14       11.3720   34.2780   61.6980 C.ar    0  <0>0       -0.0003
@<TRIPOS>BOND
     1     4     5   ar
     2     4     3   ar
     3     5     6   ar
     4     3     2   ar
     5     6     2   ar
     6     6     7    1
     7     2     1    1
     8     7     8    1
     9    16    14    1
    10     1     9    1
    11     1    14    1
    12     8     9    1
    13     9    10   am
    14    14    15    1
    15    13    12    1
    16    10    12   am
    17    10    11    2
    18    12    17    1
    19    17    18    1
    20    24    18   ar
    21    24    22   ar
    22    18    19   ar
    23    22    21   ar
    24    19    20   ar
    25    21    20   ar
    26    21    23    1
