@<TRIPOS>MOLECULE
ZINC12932212_replica-1.pdb
 30 32 0 0 0
SMALL
GASTEIGER

@<TRIPOS>ATOM
      1  C8        -0.3790   31.6710   57.3540 C.3     0  <0>0        0.1554
      2  C7         0.4000   30.7130   58.2580 C.3     0  <0>0        0.0554
      3  C4        -0.0880   29.3050   58.0390 C.ar    0  <0>0       -0.0200
      4  C3        -1.4210   28.9970   58.2370 C.ar    0  <0>0       -0.0042
      5  C2        -1.8690   27.7040   58.0360 C.ar    0  <0>0       -0.0003
      6  C1        -0.9840   26.7200   57.6370 C.ar    0  <0>0       -0.0000
      7  C6         0.3500   27.0280   57.4390 C.ar    0  <0>0       -0.0003
      8  C5         0.7960   28.3210   57.6350 C.ar    0  <0>0       -0.0042
      9  C9         0.0690   33.0850   57.6140 C.2     0  <0>0        0.2410
     10  O1         0.2060   33.4780   58.7530 O.2     0  <0>0       -0.2733
     11  N1         0.3200   33.9140   56.5810 N.am    0  <0>0       -0.2987
     12  H9         0.2110   33.5990   55.6700 H       0  <0>0        0.1498
     13  C10        0.7570   35.2890   56.8340 C.3     0  <0>0        0.1229
     14  C11        2.2620   35.3370   56.8820 C.ar    0  <0>0        0.0270
     15  S1         3.4450   34.7360   55.6880 S.2     0  <0>0       -0.0891
     16  C14        4.9360   35.2070   56.5490 C.ar    0  <0>0        0.0352
     17  C13        4.4400   35.7820   57.6720 C.ar    0  <0>0        0.0072
     18  C12        3.0700   35.8540   57.8410 C.ar    0  <0>0        0.0044
     19  N2        -0.1290   31.3290   55.9510 N.am    0  <0>0       -0.2637
     20  C15       -1.1580   31.0180   55.1390 C.2     0  <0>0        0.4023
     21  O2        -2.2940   31.0160   55.5710 O.2     0  <0>0       -0.2264
     22  H15        0.7780   31.3310   55.6060 H       0  <0>0        0.1532
     23  O3        -0.9280   30.7100   53.8480 O.3     0  <0>0       -0.4297
     24  C16       -1.9050   29.8620   53.1890 C.3     0  <0>0        0.2367
     25  C17       -1.3220   28.4870   52.9870 C.ar    0  <0>0        0.0213
     26  C22       -1.5280   27.8160   51.7960 C.ar    0  <0>0       -0.0007
     27  C21       -0.9930   26.5550   51.6110 C.ar    0  <0>0       -0.0002
     28  C20       -0.2520   25.9640   52.6180 C.ar    0  <0>0       -0.0000
     29  C19       -0.0450   26.6360   53.8090 C.ar    0  <0>0       -0.0002
     30  C18       -0.5760   27.8990   53.9920 C.ar    0  <0>0       -0.0007
@<TRIPOS>BOND
     1    27    26   ar
     2    27    28   ar
     3    26    25   ar
     4    28    29   ar
     5    25    24    1
     6    25    30   ar
     7    24    23    1
     8    29    30   ar
     9    23    20    1
    10    20    21    2
    11    20    19   am
    12    22    19    1
    13    12    11    1
    14    15    16   ar
    15    15    14   ar
    16    19     1    1
    17    16    17   ar
    18    11    13    1
    19    11     9   am
    20    13    14    1
    21    14    18   ar
    22     1     9    1
    23     1     2    1
    24     7     8   ar
    25     7     6   ar
    26     9    10    2
    27     8     3   ar
    28     6     5   ar
    29    17    18   ar
    30     5     4   ar
    31     3     4   ar
    32     3     2    1
