@<TRIPOS>MOLECULE
ZINC35521403_replica-1.pdb
 31 33 0 0 0
SMALL
GASTEIGER

@<TRIPOS>ATOM
      1  C11        6.2420   33.9300   59.8470 C.ar    0  <0>0        0.1145
      2  C12        7.2160   33.0840   60.2820 C.ar    0  <0>0        0.0238
      3  C13        8.4150   33.8370   60.4510 C.ar    0  <0>0        0.0242
      4  C14        9.7990   33.6390   60.8640 C.ar    0  <0>0        0.0090
      5  C15       10.6320   34.6890   60.8750 C.ar    0  <0>0        0.0369
      6  S1         9.6020   36.0360   60.3230 S.2     0  <0>0       -0.0692
      7  C16        8.0840   35.1470   60.0950 C.ar    0  <0>0        0.0906
      8  N3         6.7820   35.2000   59.7280 N.ar    0  <0>0       -0.3167
      9  C10        4.8570   33.5590   59.5490 C.2     0  <0>0        0.2617
     10  N2         3.8470   34.0900   60.2660 N.am    0  <0>0       -0.3013
     11  H22        4.0310   34.7730   60.9300 H       0  <0>0        0.1497
     12  O1         4.6180   32.7700   58.6520 O.2     0  <0>0       -0.2686
     13  C8         2.4720   33.6360   60.0440 C.3     0  <0>0        0.0719
     14  C9         2.0130   32.7950   61.2370 C.3     0  <0>0        0.0213
     15  C7         1.5530   34.8500   59.8910 C.3     0  <0>0        0.0174
     16  C6         1.7740   35.4870   58.5170 C.3     0  <0>0       -0.0211
     17  C5         0.6820   35.0150   57.5560 C.3     0  <0>0       -0.0773
     18  N1         1.3030   34.3770   56.3870 N.4     0  <0>0        0.3869
     19  H34        0.7690   34.5970   55.5600 H       0  <0>0       -0.0797
     20  C2         2.6760   34.8740   56.2290 C.3     0  <0>0       -0.0774
     21  C1         3.5030   33.8500   55.4480 C.3     0  <0>0       -0.0250
     22  C3         1.3280   32.9200   56.5810 C.3     0  <0>0       -0.0774
     23  C4         0.0320   32.4740   57.2590 C.3     0  <0>0       -0.0250
     24  C17        6.0640   36.3980   59.2840 C.3     0  <0>0        0.1086
     25  C18        6.3190   37.5400   60.2700 C.3     0  <0>0        0.0294
     26  C19        6.5510   36.7970   57.9160 C.ar    0  <0>0       -0.0018
     27  C24        6.1190   36.1070   56.7990 C.ar    0  <0>0       -0.0025
     28  C23        6.5630   36.4760   55.5430 C.ar    0  <0>0       -0.0003
     29  C22        7.4470   37.5300   55.4040 C.ar    0  <0>0       -0.0000
     30  C21        7.8830   38.2170   56.5220 C.ar    0  <0>0       -0.0003
     31  C20        7.4350   37.8500   57.7770 C.ar    0  <0>0       -0.0025
@<TRIPOS>BOND
     1    29    28   ar
     2    29    30   ar
     3    21    20    1
     4    28    27   ar
     5    19    18    1
     6    20    18    1
     7    18    22    1
     8    18    17    1
     9    30    31   ar
    10    22    23    1
    11    27    26   ar
    12    17    16    1
    13    31    26   ar
    14    26    24    1
    15    16    15    1
    16    12     9    2
    17    24     8    1
    18    24    25    1
    19     9     1    1
    20     9    10   am
    21     8     1   ar
    22     8     7   ar
    23     1     2   ar
    24    15    13    1
    25    13    10    1
    26    13    14    1
    27     7     6   ar
    28     7     3   ar
    29    10    11    1
    30     2     3   ar
    31     6     5   ar
    32     3     4   ar
    33     4     5   ar
