@<TRIPOS>MOLECULE
ZINC50227486_replica-1.pdb
 22 24 0 0 0
SMALL
GASTEIGER

@<TRIPOS>ATOM
      1  C2         8.5660   36.8430   58.5750 C.3     0  <0>0        0.1745
      2  C3         8.6070   37.7550   59.6210 C.2     0  <0>0        0.0041
      3  C4         9.3680   37.5110   60.7280 C.2     0  <0>0        0.0308
      4  C5        10.1140   36.3310   60.8160 C.2     0  <0>0        0.1459
      5  C6        10.0720   35.4070   59.7570 C.2     0  <0>0        0.0778
      6  C7         9.2890   35.6710   58.6420 C.2     0  <0>0        0.0186
      7  N1        10.8950   34.3610   60.1260 N.pl3   0  <0>0       -0.2863
      8  H1        11.0780   33.5620   59.6060 H       0  <0>0        0.1546
      9  C8        11.4030   34.6620   61.3600 C.2     0  <0>0        0.1839
     10  N2        10.9400   35.8200   61.7600 N.2     0  <0>0       -0.3857
     11  C9        12.3350   33.8060   62.1270 C.ar    0  <0>0        0.0467
     12  C14       11.8860   32.6090   62.6870 C.ar    0  <0>0        0.0107
     13  C13       12.7600   31.8120   63.3980 C.ar    0  <0>0        0.0369
     14  C12       14.0760   32.2020   63.5670 C.ar    0  <0>0        0.0363
     15 Br         12.1540   30.1850   64.1500 Br      0  <0>0       -0.0489
     16  C11       14.5270   33.3920   63.0190 C.ar    0  <0>0        0.1408
     17  C10       13.6640   34.1950   62.3000 C.ar    0  <0>0        0.0335
     18  F1        15.8140   33.7670   63.1880 F       0  <0>0       -0.2042
     19  S1         7.5780   37.1820   57.1560 S.O2    0  <0>0       -0.0021
     20  C1         8.3040   36.1780   55.8320 C.3     0  <0>0        0.1768
     21  O1         7.7840   38.5620   56.8930 O.2     0  <0>0       -0.1724
     22  O2         6.2860   36.6920   57.4890 O.2     0  <0>0       -0.1724
@<TRIPOS>BOND
     1    20    19    1
     2    21    19    2
     3    19    22    2
     4    19     1    1
     5     1     6    1
     6     1     2    1
     7     6     5    2
     8     8     7    1
     9     2     3    2
    10     5     7    1
    11     5     4    1
    12     7     9    1
    13     3     4    1
    14     4    10    2
    15     9    10    2
    16     9    11    1
    17    11    17   ar
    18    11    12   ar
    19    17    16   ar
    20    12    13   ar
    21    16    18    1
    22    16    14   ar
    23    13    14   ar
    24    13    15    1
