@<TRIPOS>MOLECULE
ZINC38898010_replica-1.pdb
 27 28 0 0 0
SMALL
GASTEIGER

@<TRIPOS>ATOM
      1  C7         2.6350   34.7290   56.7210 C.3     0  <0>0        0.1338
      2  C8         1.6530   34.4260   57.6190 C.2     0  <0>0        0.0981
      3  N2         1.0050   33.2670   57.5350 N.2     0  <0>0       -0.3889
      4  C9         1.2900   32.3890   56.5920 C.2     0  <0>0        0.2125
      5  N3         2.2600   32.6370   55.6690 N.am    0  <0>0       -0.2541
      6  H2         2.4580   31.9800   54.9830 H       0  <0>0        0.1577
      7  C10        2.9420   33.8010   55.7100 C.2     0  <0>0        0.2347
      8  O2         3.8100   34.0430   54.8870 O.2     0  <0>0       -0.2743
      9  C18        1.3020   35.4060   58.7090 C.3     0  <0>0        0.0621
     10  C6         3.3740   36.0400   56.8080 C.3     0  <0>0        0.1009
     11  C5         4.7640   35.7980   57.3390 C.2     0  <0>0        0.2233
     12  N1         5.8120   35.7700   56.4920 N.am    0  <0>0       -0.3059
     13  H11        5.6730   35.9030   55.5420 H       0  <0>0        0.1494
     14  O1         4.9380   35.6310   58.5270 O.2     0  <0>0       -0.2751
     15  C3         7.1630   35.5360   57.0080 C.3     0  <0>0        0.0716
     16  C4         7.6990   34.2130   56.4570 C.3     0  <0>0        0.0213
     17  C2         8.0810   36.6800   56.5700 C.3     0  <0>0        0.0196
     18  C1         8.0230   37.8050   57.6050 C.3     0  <0>0        0.0017
     19  S1         0.4010   30.8680   56.5280 S.3     0  <0>0       -0.0621
     20  C11       -0.5240   30.9670   54.9710 C.3     0  <0>0        0.0921
     21  C12       -0.5080   29.6220   54.2910 C.ar    0  <0>0       -0.0107
     22  C17       -1.4160   29.3440   53.2860 C.ar    0  <0>0       -0.0011
     23  C16       -1.3990   28.1140   52.6590 C.ar    0  <0>0        0.0293
     24  C15       -0.4790   27.1530   53.0450 C.ar    0  <0>0        0.1401
     25  C14        0.4260   27.4300   54.0550 C.ar    0  <0>0        0.0293
     26  F1        -0.4650   25.9470   52.4360 F       0  <0>0       -0.2042
     27  C13        0.4110   28.6640   54.6780 C.ar    0  <0>0       -0.0011
@<TRIPOS>BOND
     1    26    24    1
     2    23    24   ar
     3    23    22   ar
     4    24    25   ar
     5    22    21   ar
     6    25    27   ar
     7    21    27   ar
     8    21    20    1
     9     8     7    2
    10    20    19    1
    11     6     5    1
    12    13    12    1
    13     5     7   am
    14     5     4    1
    15     7     1    1
    16    16    15    1
    17    12    15    1
    18    12    11   am
    19    19     4    1
    20    17    15    1
    21    17    18    1
    22     4     3    2
    23     1    10    1
    24     1     2    1
    25    10    11    1
    26    11    14    2
    27     3     2    2
    28     2     9    1
