@<TRIPOS>MOLECULE
ZINC49376781_replica-1.pdb
 21 21 0 0 0
SMALL
GASTEIGER

@<TRIPOS>ATOM
      1  C8         9.0920   34.6390   59.5040 C.2     0  <0>0        0.2456
      2  O1         7.9620   34.2960   59.7940 O.2     0  <0>0       -0.2702
      3  N1         9.4560   34.7300   58.2080 N.am    0  <0>0       -0.3000
      4  H7        10.3570   35.0030   57.9760 H       0  <0>0        0.1498
      5  C7        10.0670   34.9550   60.5690 C.ar    0  <0>0        0.0511
      6  C2        10.2160   36.2680   61.0150 C.ar    0  <0>0       -0.0174
      7  C1         9.3840   37.3690   60.4110 C.3     0  <0>0        0.0312
      8  C3        11.1250   36.5550   62.0140 C.ar    0  <0>0       -0.0024
      9  C4        11.8890   35.5450   62.5690 C.ar    0  <0>0        0.0238
     10  C5        11.7490   34.2410   62.1280 C.ar    0  <0>0        0.1430
     11  C6        10.8450   33.9400   61.1300 C.ar    0  <0>0        0.0283
     12  N2        12.5720   33.1670   62.7280 N.pl3   0  <0>0        0.0577
     13  O2        12.0520   32.1370   63.0870 O.2     0  <0>0       -0.1261
     14  O3        13.7650   33.3200   62.8580 O.2     0  <0>0       -0.1261
     15  C9         8.4890   34.4180   57.1530 C.3     0  <0>0        0.1016
     16  C10        8.2580   35.6610   56.2900 C.3     0  <0>0        0.0867
     17  S1         7.0320   36.7310   57.0910 S.3     0  <0>0       -0.0396
     18  C11        7.7480   38.3930   56.9580 C.3     0  <0>0        0.4438
     19  F1         7.4180   39.1350   58.0970 F       0  <0>0       -0.1602
     20  F2         9.1400   38.2940   56.8540 F       0  <0>0       -0.1602
     21  F3         7.2400   39.0310   55.8220 F       0  <0>0       -0.1602
@<TRIPOS>BOND
     1    21    18    1
     2    16    17    1
     3    16    15    1
     4    20    18    1
     5    18    17    1
     6    18    19    1
     7    15     3    1
     8     4     3    1
     9     3     1   am
    10     1     2    2
    11     1     5    1
    12     7     6    1
    13     5     6   ar
    14     5    11   ar
    15     6     8   ar
    16    11    10   ar
    17     8     9   ar
    18    10     9   ar
    19    10    12    1
    20    12    14    2
    21    12    13    2
