@<TRIPOS>MOLECULE
ZINC37328673_replica-1.pdb
 22 24 0 0 0
SMALL
GASTEIGER

@<TRIPOS>ATOM
      1  C1         8.0680   38.8710   57.6920 C.3     0  <0>0        0.0275
      2  C2         8.2170   37.3840   57.4920 C.2     0  <0>0       -0.0264
      3  C3         7.8220   36.8100   56.3450 C.2     0  <0>0        0.0027
      4  S1         8.2000   35.0850   56.5950 S.3     0  <0>0       -0.0639
      5  C4         8.8780   35.1880   58.2320 C.2     0  <0>0        0.1515
      6  C5         8.7960   36.5580   58.5360 C.3     0  <0>0        0.1537
      7  C6         9.2890   36.9370   59.8270 C.2     0  <0>0        0.2384
      8  O1         9.2570   38.1020   60.1840 O.2     0  <0>0       -0.2739
      9  N1         9.7890   35.9860   60.6380 N.am    0  <0>0       -0.2594
     10  C7         9.8330   34.6830   60.2570 C.2     0  <0>0        0.2073
     11  N2         9.3810   34.3050   59.0900 N.2     0  <0>0       -0.3846
     12  C15        7.2050   37.4650   55.1360 C.3     0  <0>0        0.0376
     13  H13       10.1240   36.2370   61.5130 H       0  <0>0        0.1570
     14  C8        10.4000   33.6550   61.1990 C.3     0  <0>0        0.2793
     15  O2        11.3740   34.2700   62.0460 O.3     0  <0>0       -0.4663
     16  C9        12.2830   33.4510   62.6370 C.ar    0  <0>0        0.1397
     17  C14       11.9220   32.1640   63.0080 C.ar    0  <0>0        0.0436
     18  C13       12.8500   31.3320   63.6030 C.ar    0  <0>0        0.0376
     19  C12       14.1360   31.7850   63.8390 C.ar    0  <0>0        0.0069
     20 Br         12.3620   29.5740   64.1020 Br      0  <0>0       -0.0489
     21  C11       14.4970   33.0690   63.4740 C.ar    0  <0>0        0.0036
     22  C10       13.5740   33.9030   62.8740 C.ar    0  <0>0        0.0369
@<TRIPOS>BOND
     1    12     3    1
     2     3     4    1
     3     3     2    2
     4     4     5    1
     5     2     1    1
     6     2     6    1
     7     5     6    1
     8     5    11    2
     9     6     7    1
    10    11    10    2
    11     7     8    2
    12     7     9   am
    13    10     9    1
    14    10    14    1
    15     9    13    1
    16    14    15    1
    17    15    16    1
    18    16    22   ar
    19    16    17   ar
    20    22    21   ar
    21    17    18   ar
    22    21    19   ar
    23    18    19   ar
    24    18    20    1
