@<TRIPOS>MOLECULE
ZINC62766324_replica-1.pdb
 18 19 0 0 0
SMALL
GASTEIGER

@<TRIPOS>ATOM
      1  C3         7.9450   38.0420   59.7370 C.3     0  <0>0        0.0009
      2  C4         8.0800   38.8600   58.4520 C.3     0  <0>0        0.0006
      3  C5         8.4920   37.9390   57.3020 C.3     0  <0>0        0.0121
      4  C6         7.4280   36.8580   57.1080 C.3     0  <0>0        0.1133
      5  C7         7.2930   36.0390   58.3940 C.3     0  <0>0        0.0583
      6  C8         6.8810   36.9600   59.5440 C.3     0  <0>0        0.0113
      7  S1         6.0310   34.7560   58.1640 S.3     0  <0>0       -0.1414
      8  C9         4.4960   35.6900   57.9190 C.3     0  <0>0        0.0476
      9  C14        3.4330   35.1930   58.9010 C.3     0  <0>0        0.0108
     10  C13        2.1390   35.9820   58.6930 C.3     0  <0>0        0.0009
     11  C12        1.6420   35.7790   57.2610 C.3     0  <0>0        0.0001
     12  C11        2.7040   36.2750   56.2780 C.3     0  <0>0        0.0009
     13  C10        3.9990   35.4880   56.4850 C.3     0  <0>0        0.0108
     14  C15        7.8330   35.9510   55.9750 C.2     0  <0>0        0.3651
     15  O1         8.7700   35.1830   56.1150 O.co2   0  <0>0       -0.2456
     16  O2         7.2240   35.9840   54.9200 O.co2   0  <0>0       -0.2456
     17  C2         9.2870   37.3830   60.0660 C.3     0  <0>0        0.0000
     18  C1         9.2670   36.8830   61.5120 C.3     0  <0>0        0.0000
@<TRIPOS>BOND
     1    16    14   ar
     2    14    15   ar
     3    14     4    1
     4    12    13    1
     5    12    11    1
     6    13     8    1
     7     4     3    1
     8     4     5    1
     9    11    10    1
    10     3     2    1
    11     8     7    1
    12     8     9    1
    13     7     5    1
    14     5     6    1
    15     2     1    1
    16    10     9    1
    17     6     1    1
    18     1    17    1
    19    17    18    1
