@<TRIPOS>MOLECULE
ZINC40569459_replica-1.pdb
 30 31 0 0 0
SMALL
GASTEIGER

@<TRIPOS>ATOM
      1  C4         6.1560   36.2390   55.9010 C.2     0  <0>0        0.0310
      2  C5         4.9050   36.7430   55.9580 C.2     0  <0>0        0.0319
      3  C6         3.8760   35.9940   56.5660 C.3     0  <0>0        0.2167
      4  C7         4.1730   34.7550   57.0920 C.2     0  <0>0        0.0722
      5  C8         5.4860   34.2740   57.0090 C.2     0  <0>0        0.2519
      6  O1         5.7640   33.1770   57.4710 O.2     0  <0>0       -0.2698
      7  N1         6.4400   35.0150   56.4160 N.am    0  <0>0       -0.2592
      8  C11        3.1070   33.9230   57.7500 C.2     0  <0>0       -0.0042
      9  C12        1.7450   34.4380   57.3770 C.2     0  <0>0        0.1127
     10  C13        1.5830   35.6730   56.8450 C.2     0  <0>0        0.1970
     11  O2         2.6230   36.4940   56.6230 O.2     0  <0>0       -0.4575
     12  C14        0.5980   33.6090   57.5890 C.1     0  <0>0        0.1045
     13  N3        -0.3130   32.9500   57.7570 N.1     0  <0>0       -0.1907
     14  C15        3.2750   33.9930   59.2690 C.3     0  <0>0        0.0271
     15  C16        3.8170   32.6590   59.7840 C.3     0  <0>0        0.0044
     16  C17        2.7100   31.9120   60.5310 C.3     0  <0>0        0.0003
     17  C18        4.9880   32.9170   60.7350 C.3     0  <0>0        0.0003
     18  C19        5.1480   34.4240   60.9500 C.3     0  <0>0        0.0000
     19  C20        6.5790   34.8380   60.6080 C.3     0  <0>0        0.0000
     20  C21        6.7160   36.3570   60.7380 C.3     0  <0>0        0.0000
     21  C22        8.1970   36.7320   60.8130 C.3     0  <0>0        0.0000
     22  C23        6.0800   37.0320   59.5200 C.3     0  <0>0        0.0000
     23  N2         0.3180   36.0980   56.5220 N.pl3   0  <0>0       -0.3285
     24  H16        0.1230   36.4010   55.6220 H       0  <0>0        0.1451
     25  H17       -0.3810   36.0950   57.1950 H       0  <0>0        0.1451
     26  C9         7.8080   34.4960   56.3320 C.3     0  <0>0        0.0982
     27  C10        8.5600   34.8270   57.6240 C.3     0  <0>0        0.0237
     28  C3         7.2520   37.0450   55.2500 C.3     0  <0>0        0.0413
     29  C2         7.3090   38.4360   55.8860 C.3     0  <0>0        0.0060
     30  C1         8.4070   38.4640   56.9520 C.3     0  <0>0        0.0004
@<TRIPOS>BOND
     1    28    29    1
     2    28     1    1
     3    24    23    1
     4    29    30    1
     5     1     2    2
     6     1     7    1
     7     2     3    1
     8    26     7    1
     9    26    27    1
    10     7     5   am
    11    23    10    1
    12    23    25    1
    13     3    11    1
    14     3     4    1
    15    11    10    1
    16    10     9    2
    17     5     4    1
    18     5     6    2
    19     4     8    2
    20     9    12    1
    21     9     8    1
    22    12    13    3
    23     8    14    1
    24    14    15    1
    25    22    20    1
    26    15    16    1
    27    15    17    1
    28    19    20    1
    29    19    18    1
    30    17    18    1
    31    20    21    1
