@<TRIPOS>MOLECULE
ZINC40795300_replica-1.pdb
 20 21 0 0 0
SMALL
GASTEIGER

@<TRIPOS>ATOM
      1  C9         0.6110   30.7190   55.6400 C.3     0  <0>0        0.1627
      2  N2         1.6650   31.4070   55.9770 N.3     0  <0>0       -0.2776
      3  C10        1.6040   32.4230   57.0110 C.3     0  <0>0        0.0666
      4  C11        0.1390   32.8640   57.2750 C.3     0  <0>0        0.0759
      5  S1        -0.7150   31.3550   56.6520 S.3     0  <0>0       -0.1076
      6  H23        2.5070   31.2360   55.5270 H       0  <0>0        0.1252
      7  N1         0.5340   29.7190   54.6990 N.3     0  <0>0       -0.2748
      8  H11        1.0170   29.8020   53.8620 H       0  <0>0        0.1255
      9  C2        -0.2770   28.5280   54.9610 C.3     0  <0>0        0.0784
     10  C1         0.5150   27.5540   55.8360 C.3     0  <0>0        0.0220
     11  C3        -0.6260   27.8610   53.6560 C.ar    0  <0>0       -0.0080
     12  C8        -1.3980   28.5290   52.7230 C.ar    0  <0>0       -0.0030
     13  C7        -1.7140   27.9190   51.5230 C.ar    0  <0>0       -0.0003
     14  C6        -1.2670   26.6370   51.2600 C.ar    0  <0>0       -0.0000
     15  C5        -0.5000   25.9680   52.1950 C.ar    0  <0>0       -0.0003
     16  C4        -0.1790   26.5800   53.3920 C.ar    0  <0>0       -0.0030
     17  C12        2.4220   33.6390   56.5710 C.3     0  <0>0        0.0167
     18  C13        2.2120   34.7810   57.5680 C.3     0  <0>0        0.0014
     19  C14        3.1210   34.5720   58.7800 C.3     0  <0>0        0.0000
     20  C15        2.5560   36.1120   56.8960 C.3     0  <0>0        0.0000
@<TRIPOS>BOND
     1    14    13   ar
     2    14    15   ar
     3    13    12   ar
     4    15    16   ar
     5    12    11   ar
     6    16    11   ar
     7    11     9    1
     8     8     7    1
     9     7     9    1
    10     7     1    1
    11     9    10    1
    12     6     2    1
    13     1     2    1
    14     1     5    1
    15     2     3    1
    16    17     3    1
    17    17    18    1
    18     5     4    1
    19    20    18    1
    20     3     4    1
    21    18    19    1
