@<TRIPOS>MOLECULE
ZINC08554765_replica-1.pdb
 24 25 0 0 0
SMALL
GASTEIGER

@<TRIPOS>ATOM
      1  C10       -0.4170   29.8560   54.5900 C.2     0  <0>0        0.2674
      2  O2        -1.4540   30.4590   54.7920 O.2     0  <0>0       -0.2683
      3  N1         0.7560   30.3710   55.0060 N.am    0  <0>0       -0.2022
      4  H10        1.5830   29.8890   54.8450 H       0  <0>0        0.1776
      5  C9        -0.4440   28.5570   53.8890 C.ar    0  <0>0        0.0889
      6  C4         0.1500   27.4300   54.4720 C.ar    0  <0>0        0.1434
      7  C5         0.1230   26.2150   53.8020 C.ar    0  <0>0        0.0371
      8  C6        -0.4950   26.1180   52.5710 C.ar    0  <0>0        0.0031
      9  C7        -1.0840   27.2300   51.9920 C.ar    0  <0>0        0.0003
     10  C8        -1.0610   28.4460   52.6410 C.ar    0  <0>0        0.0076
     11  O1         0.7540   27.5260   55.6820 O.3     0  <0>0       -0.4705
     12  C3         0.1320   26.8460   56.7740 C.3     0  <0>0        0.2318
     13  C2        -0.6990   27.8230   57.5660 C.2     0  <0>0        0.0207
     14  C1        -2.0070   27.7600   57.5180 C.2     0  <0>0       -0.0011
     15  N2         0.7820   31.6040   55.6720 N.2     0  <0>0       -0.1773
     16  C11        1.7900   31.9100   56.4310 C.2     0  <0>0        0.1193
     17  C12        1.8180   33.2070   57.1310 C.ar    0  <0>0        0.0418
     18  C17        1.1030   33.3790   58.3200 C.ar    0  <0>0        0.0600
     19  C16        1.1340   34.5970   58.9710 C.ar    0  <0>0        0.0115
     20 Cl          0.1770   32.0650   58.9770 Cl      0  <0>0       -0.0822
     21  C15        1.8710   35.6450   58.4500 C.ar    0  <0>0        0.0017
     22  C14        2.5820   35.4820   57.2730 C.ar    0  <0>0        0.0115
     23  C13        2.5640   34.2700   56.6140 C.ar    0  <0>0        0.0600
     24 Cl          3.4620   34.0660   55.1410 Cl      0  <0>0       -0.0822
@<TRIPOS>BOND
     1     9     8   ar
     2     9    10   ar
     3     8     7   ar
     4    10     5   ar
     5     7     6   ar
     6     5     6   ar
     7     5     1    1
     8     6    11    1
     9     1     2    2
    10     1     3   am
    11     4     3    1
    12     3    15    1
    13    24    23    1
    14    15    16    2
    15    11    12    1
    16    16    17    1
    17    23    17   ar
    18    23    22   ar
    19    12    13    1
    20    17    18   ar
    21    22    21   ar
    22    14    13    2
    23    18    19   ar
    24    18    20    1
    25    21    19   ar
