@<TRIPOS>MOLECULE
ZINC56867114_replica-1.pdb
 31 32 0 0 0
SMALL
GASTEIGER

@<TRIPOS>ATOM
      1  C3         1.1520   33.2170   57.2210 C.ar    0  <0>0       -0.0032
      2  C4         1.4880   32.5900   58.4070 C.ar    0  <0>0       -0.0026
      3  C5         0.9540   31.3510   58.7120 C.ar    0  <0>0        0.0010
      4  C6         0.0840   30.7360   57.8330 C.ar    0  <0>0        0.0147
      5  C7        -0.2550   31.3630   56.6410 C.ar    0  <0>0        0.0500
      6  C8         0.2790   32.6100   56.3400 C.ar    0  <0>0        0.0120
      7  C2         1.7340   34.5670   56.8930 C.3     0  <0>0        0.0956
      8  C1         0.6560   35.6410   57.0520 C.3     0  <0>0        0.0262
      9  N2         2.8470   34.8530   57.8020 N.am    0  <0>0       -0.2866
     10  C17        4.1020   34.9510   57.3220 C.2     0  <0>0        0.3042
     11  O2         4.3120   34.8000   56.1340 O.2     0  <0>0       -0.2526
     12  N3         5.1250   35.2130   58.1590 N.am    0  <0>0       -0.2625
     13  C18        4.8720   35.3950   59.5910 C.3     0  <0>0        0.1164
     14  H16        2.6790   34.9740   58.7500 H       0  <0>0        0.1512
     15  C19        6.4900   35.3200   57.6380 C.3     0  <0>0        0.0950
     16  C20        7.1360   36.6060   58.1560 C.3     0  <0>0        0.0216
     17  C21        7.4660   37.5230   56.9760 C.3     0  <0>0        0.0017
     18  C22        8.3900   38.6480   57.4470 C.3     0  <0>0        0.0001
     19  C23        8.1640   36.7130   55.8810 C.3     0  <0>0        0.0001
     20  N1        -1.1350   30.7430   55.7480 N.am    0  <0>0       -0.2836
     21  C9        -0.6570   30.1150   54.6560 C.2     0  <0>0        0.2306
     22  O1         0.5420   30.0040   54.4960 O.2     0  <0>0       -0.2744
     23  H9        -2.0900   30.7640   55.9150 H       0  <0>0        0.1549
     24  C10       -1.6080   29.5500   53.6330 C.3     0  <0>0        0.1139
     25  C11       -1.1300   28.1880   53.2000 C.ar    0  <0>0        0.0144
     26  C16       -1.4500   27.7090   51.9420 C.ar    0  <0>0        0.1366
     27  C15       -1.0050   26.4600   51.5430 C.ar    0  <0>0        0.0293
     28  F1        -2.1930   28.4630   51.1010 F       0  <0>0       -0.2045
     29  C14       -0.2500   25.6890   52.4060 C.ar    0  <0>0        0.0023
     30  C13        0.0660   26.1660   53.6650 C.ar    0  <0>0       -0.0002
     31  C12       -0.3740   27.4150   54.0620 C.ar    0  <0>0       -0.0016
@<TRIPOS>BOND
     1    28    26    1
     2    27    26   ar
     3    27    29   ar
     4    26    25   ar
     5    29    30   ar
     6    25    24    1
     7    25    31   ar
     8    24    21    1
     9    30    31   ar
    10    22    21    2
    11    21    20   am
    12    20    23    1
    13    20     5    1
    14    19    17    1
    15    11    10    2
    16     6     5   ar
    17     6     1   ar
    18     5     4   ar
    19     7     8    1
    20     7     1    1
    21     7     9    1
    22    17    18    1
    23    17    16    1
    24     1     2   ar
    25    10     9   am
    26    10    12   am
    27    15    16    1
    28    15    12    1
    29     9    14    1
    30     4     3   ar
    31    12    13    1
    32     2     3   ar
