@<TRIPOS>MOLECULE
ZINC21229535_replica-1.pdb
 36 40 0 0 0
SMALL
GASTEIGER

@<TRIPOS>ATOM
      1  C8        10.4960   33.7760   61.7800 C.3     0  <0>0        0.0357
      2  C9        10.5320   34.8680   60.7120 C.3     0  <0>0        0.0458
      3  C10        9.1230   35.1570   60.2180 C.2     0  <0>0        0.0262
      4  C11        8.2110   34.1750   60.1620 C.2     0  <0>0        0.0436
      5  C12        6.7900   34.3120   59.6660 C.3     0  <0>0        0.1186
      6  N1         6.3550   35.6790   59.4770 N.pl3   0  <0>0       -0.3262
      7  C13        6.9530   36.4990   58.5220 C.ar    0  <0>0        0.0586
      8  C14        6.2540   36.9320   57.4060 C.ar    0  <0>0        0.0156
      9  C15        6.9080   37.6810   56.4420 C.ar    0  <0>0        0.0013
     10  C16        8.2460   37.9970   56.5890 C.ar    0  <0>0        0.0014
     11  C17        8.9400   37.5860   57.7140 C.ar    0  <0>0        0.0158
     12  C18        8.2830   36.8530   58.6860 C.ar    0  <0>0        0.0614
     13  N2         8.9060   36.4490   59.8620 N.pl3   0  <0>0       -0.3150
     14  C26        8.5390   32.8670   60.5940 C.2     0  <0>0        0.1722
     15  O2         7.6970   31.9950   60.5160 O.2     0  <0>0       -0.2916
     16  C27        9.8910   32.5200   61.1430 C.3     0  <0>0        0.0736
     17  H12        5.5400   36.0870   60.0930 H       0  <0>0        0.1474
     18  H17        9.2310   37.2650   60.5250 H       0  <0>0        0.1520
     19  C19        6.6690   33.5850   58.3510 C.ar    0  <0>0        0.0036
     20  C24        5.4820   32.9640   58.0100 C.ar    0  <0>0        0.0693
     21  C23        5.3720   32.2980   56.8040 C.ar    0  <0>0        0.0036
     22  C22        6.4500   32.2480   55.9410 C.ar    0  <0>0       -0.0001
     23  C21        7.6350   32.8740   56.2790 C.ar    0  <0>0       -0.0003
     24  C20        7.7460   33.5400   57.4840 C.ar    0  <0>0       -0.0024
     25  C25        4.3090   33.0120   58.9550 C.3     0  <0>0        0.4183
     26  F1         4.7410   32.7090   60.2500 F       0  <0>0       -0.1659
     27  F2         3.7480   34.2930   58.9380 F       0  <0>0       -0.1659
     28  F3         3.3480   32.0770   58.5530 F       0  <0>0       -0.1659
     29  C6        11.8940   33.4830   62.2590 C.ar    0  <0>0       -0.0187
     30  C5        12.9250   34.3550   61.9580 C.ar    0  <0>0       -0.0041
     31  C4        14.2090   34.0900   62.4000 C.ar    0  <0>0        0.0028
     32  C3        14.4660   32.9500   63.1330 C.ar    0  <0>0        0.0369
     33  C2        13.4350   32.0710   63.4330 C.ar    0  <0>0        0.1384
     34  C7        12.1470   32.3400   62.9930 C.ar    0  <0>0        0.0326
     35  O1        13.6860   30.9460   64.1550 O.3     0  <0>0       -0.4714
     36  C1        12.6110   30.0150   64.2980 C.3     0  <0>0        0.2525
@<TRIPOS>BOND
     1    22    23   ar
     2    22    21   ar
     3    23    24   ar
     4     9    10   ar
     5     9     8   ar
     6    10    11   ar
     7    21    20   ar
     8     8     7   ar
     9    24    19   ar
    10    11    12   ar
    11    20    19   ar
    12    20    25    1
    13    19     5    1
    14     7    12   ar
    15     7     6    1
    16    28    25    1
    17    12    13    1
    18    27    25    1
    19    25    26    1
    20     6     5    1
    21     6    17    1
    22     5     4    1
    23    13     3    1
    24    13    18    1
    25     4     3    2
    26     4    14    1
    27     3     2    1
    28    15    14    2
    29    14    16    1
    30     2     1    1
    31    16     1    1
    32     1    29    1
    33    30    29   ar
    34    30    31   ar
    35    29    34   ar
    36    31    32   ar
    37    34    33   ar
    38    32    33   ar
    39    33    35    1
    40    35    36    1
