@<TRIPOS>MOLECULE
ZINC41464938_replica-1.pdb
 22 24 0 0 0
SMALL
GASTEIGER

@<TRIPOS>ATOM
      1  C5         4.4850   35.1720   57.7640 C.ar    0  <0>0       -0.0229
      2  C6         4.4830   34.2050   58.7530 C.ar    0  <0>0       -0.0012
      3  C7         5.6100   34.0090   59.5250 C.ar    0  <0>0        0.0362
      4  C8         6.7480   34.7800   59.3130 C.ar    0  <0>0        0.1341
      5  C9         6.7450   35.7480   58.3250 C.ar    0  <0>0        0.0113
      6  C10        5.6150   35.9360   57.5470 C.ar    0  <0>0       -0.0056
      7  C11        7.9530   36.6140   58.0660 C.3     0  <0>0        0.0312
      8  C12        9.1960   35.9610   58.6770 C.3     0  <0>0        0.0445
      9  C13        8.8630   35.5400   60.1090 C.3     0  <0>0        0.1334
     10  O1         7.8400   34.5520   60.0900 O.3     0  <0>0       -0.4829
     11  C14       10.1240   34.9830   60.7950 C.3     0  <0>0        0.0400
     12  C15       10.6960   36.1940   61.5750 C.3     0  <0>0        0.0037
     13  C16        9.4190   36.9070   62.0860 C.3     0  <0>0        0.0037
     14  C17        8.4130   36.7600   60.9240 C.3     0  <0>0        0.0400
     15  C2         3.2560   35.3860   56.9180 C.3     0  <0>0        0.0189
     16  C1         3.5930   36.3250   55.7570 C.3     0  <0>0        0.0044
     17  C3         2.1500   36.0090   57.7740 C.3     0  <0>0        0.0044
     18  C4         2.7770   34.0420   56.3650 C.3     0  <0>0        0.0044
     19  C18        8.1520   36.7730   56.5580 C.3     0  <0>0        0.0363
     20  C19        7.9960   38.2450   56.1740 C.3     0  <0>0        0.1375
     21  O2         9.0950   38.9940   56.6980 O.3     0  <0>0       -0.3820
     22  H28        8.9140   39.9370   56.8050 H       0  <0>0        0.2104
@<TRIPOS>BOND
     1    16    15    1
     2    20    19    1
     3    20    21    1
     4    18    15    1
     5    19     7    1
     6    21    22    1
     7    15     1    1
     8    15    17    1
     9     6     1   ar
    10     6     5   ar
    11     1     2   ar
    12     7     5    1
    13     7     8    1
    14     5     4   ar
    15     8     9    1
    16     2     3   ar
    17     4     3   ar
    18     4    10    1
    19    10     9    1
    20     9    11    1
    21     9    14    1
    22    11    12    1
    23    14    13    1
    24    12    13    1
