@<TRIPOS>MOLECULE
ZINC37503812_replica-1.pdb
 19 20 0 0 0
SMALL
GASTEIGER

@<TRIPOS>ATOM
      1  C1        11.4420   31.2710   63.4070 C.ar    0  <0>0        0.0013
      2  C2        12.6050   30.7360   63.9310 C.ar    0  <0>0        0.0006
      3  C3        13.7910   31.4410   63.8560 C.ar    0  <0>0        0.0075
      4  C4        13.8180   32.6900   63.2530 C.ar    0  <0>0        0.0433
      5  C5        12.6460   33.2310   62.7240 C.ar    0  <0>0        0.0508
      6  C6        11.4610   32.5160   62.8040 C.ar    0  <0>0        0.0148
      7  N1        12.6670   34.4910   62.1150 N.pl3   0  <0>0       -0.3261
      8  H5        13.3070   34.6790   61.4110 H       0  <0>0        0.1472
      9  C7        11.7210   35.5260   62.5400 C.3     0  <0>0        0.1528
     10  C8        10.8120   35.8780   61.3920 C.ar    0  <0>0        0.1438
     11  O1        10.1310   37.0280   61.2540 O.2     0  <0>0       -0.4449
     12  C11        9.4270   36.9970   60.1100 C.ar    0  <0>0        0.2028
     13  C10        9.6460   35.8130   59.5080 C.ar    0  <0>0        0.0524
     14 Cl          8.4020   38.2650   59.5130 Cl      0  <0>0       -0.0425
     15  C9        10.5390   35.0920   60.3350 C.ar    0  <0>0        0.0388
     16  S1        15.3290   33.5920   63.1580 S.3     0  <0>0       -0.0429
     17  C12       15.7010   34.0100   64.8830 C.3     0  <0>0        0.3707
     18  F1        15.8830   32.8350   65.6190 F       0  <0>0       -0.1852
     19  F2        16.8700   34.7780   64.9360 F       0  <0>0       -0.1852
@<TRIPOS>BOND
     1    13    12   ar
     2    13    15   ar
     3    14    12    1
     4    12    11   ar
     5    15    10   ar
     6    11    10   ar
     7    10     9    1
     8     8     7    1
     9     7     9    1
    10     7     5    1
    11     5     6   ar
    12     5     4   ar
    13     6     1   ar
    14    16     4    1
    15    16    17    1
    16     4     3   ar
    17     1     2   ar
    18     3     2   ar
    19    17    19    1
    20    17    18    1
