@<TRIPOS>MOLECULE
ZINC37317034_replica-1.pdb
 23 24 0 0 0
SMALL
GASTEIGER

@<TRIPOS>ATOM
      1  C1         4.9640   36.0940   55.9970 C.3     0  <0>0        0.0212
      2  C2         6.1000   35.6060   56.8970 C.3     0  <0>0        0.0694
      3  C3         6.6810   36.7900   57.6720 C.3     0  <0>0        0.0235
      4  C4         8.1820   36.8930   57.3970 C.3     0  <0>0        0.0205
      5  C5         8.5570   35.9510   56.2510 C.3     0  <0>0        0.0044
      6  C6         8.5330   38.3310   57.0110 C.3     0  <0>0        0.0044
      7  C7         8.9480   36.5040   58.6360 C.ar    0  <0>0       -0.0227
      8  C12        8.9300   37.3280   59.7470 C.ar    0  <0>0       -0.0043
      9  C11        9.6280   36.9690   60.8850 C.ar    0  <0>0       -0.0003
     10  C10       10.3500   35.7910   60.9090 C.ar    0  <0>0       -0.0000
     11  C9        10.3720   34.9700   59.7980 C.ar    0  <0>0       -0.0003
     12  C8         9.6710   35.3260   58.6620 C.ar    0  <0>0       -0.0043
     13  N1         5.5850   34.6100   57.8400 N.pl3   0  <0>0       -0.3342
     14  H18        4.6370   34.5800   58.0420 H       0  <0>0        0.1468
     15  C13        6.4580   33.7050   58.4470 C.ar    0  <0>0        0.0429
     16  C18        6.6240   33.7150   59.8260 C.ar    0  <0>0        0.0201
     17  C17        7.4840   32.8140   60.4220 C.ar    0  <0>0       -0.0006
     18  C16        8.1890   31.9120   59.6480 C.ar    0  <0>0       -0.0002
     19  C15        8.0320   31.9030   58.2740 C.ar    0  <0>0        0.0012
     20  C14        7.1680   32.7970   57.6720 C.ar    0  <0>0        0.0141
     21  C19        5.8600   34.7020   60.6700 C.3     0  <0>0        0.1648
     22  O1         4.5270   34.2280   60.8680 O.3     0  <0>0       -0.3772
     23  H25        4.3760   33.3310   60.5420 H       0  <0>0        0.2109
@<TRIPOS>BOND
     1     1     2    1
     2     5     4    1
     3     2     3    1
     4     2    13    1
     5     6     4    1
     6     4     3    1
     7     4     7    1
     8    20    19   ar
     9    20    15   ar
    10    13    14    1
    11    13    15    1
    12    19    18   ar
    13    15    16   ar
    14     7    12   ar
    15     7     8   ar
    16    12    11   ar
    17    18    17   ar
    18     8     9   ar
    19    11    10   ar
    20    16    17   ar
    21    16    21    1
    22    23    22    1
    23    21    22    1
    24     9    10   ar
