@<TRIPOS>MOLECULE
ZINC22229816_replica-1.pdb
 26 27 0 0 0
SMALL
GASTEIGER

@<TRIPOS>ATOM
      1  C8         0.7410   30.1830   58.4970 C.3     0  <0>0        0.0860
      2  C7         0.3910   31.6590   58.2920 C.3     0  <0>0        0.0254
      3  C3         1.5520   32.3660   57.6410 C.3     0  <0>0        0.1253
      4  C2         2.4940   32.9960   58.4010 C.2     0  <0>0        0.0976
      5  C1         2.3790   32.9880   59.9030 C.3     0  <0>0        0.0620
      6  N2         3.5130   33.6220   57.8170 N.2     0  <0>0       -0.3889
      7  C5         3.6450   33.6410   56.5050 C.2     0  <0>0        0.2122
      8  N1         2.7350   33.0300   55.6960 N.am    0  <0>0       -0.2542
      9  C4         1.6800   32.3860   56.2410 C.2     0  <0>0        0.2342
     10  H1         2.8430   33.0570   54.7320 H       0  <0>0        0.1577
     11  O1         0.8540   31.8340   55.5320 O.2     0  <0>0       -0.2743
     12  S1         5.0180   34.4790   55.7840 S.3     0  <0>0       -0.0660
     13  C6         4.5540   34.6660   54.0420 C.3     0  <0>0        0.0780
     14  C9        -0.0930   29.3360   57.5710 C.2     0  <0>0        0.2225
     15  O2        -1.2580   29.1210   57.8290 O.2     0  <0>0       -0.2751
     16  N3         0.4570   28.8170   56.4550 N.am    0  <0>0       -0.3040
     17  H13        1.3890   28.9900   56.2480 H       0  <0>0        0.1494
     18  C10       -0.3540   27.9940   55.5540 C.3     0  <0>0        0.0937
     19  C11       -0.3840   28.6370   54.1650 C.3     0  <0>0        0.0419
     20  C12       -1.4900   29.6920   54.1160 C.3     0  <0>0        0.0064
     21  C13       -0.6540   27.5780   53.1280 C.ar    0  <0>0       -0.0208
     22  C18       -1.4150   27.8800   52.0130 C.ar    0  <0>0       -0.0042
     23  C17       -1.6590   26.9090   51.0600 C.ar    0  <0>0       -0.0003
     24  C16       -1.1510   25.6340   51.2250 C.ar    0  <0>0       -0.0000
     25  C15       -0.3950   25.3300   52.3420 C.ar    0  <0>0       -0.0003
     26  C14       -0.1470   26.3030   53.2930 C.ar    0  <0>0       -0.0042
@<TRIPOS>BOND
     1    23    24   ar
     2    23    22   ar
     3    24    25   ar
     4    22    21   ar
     5    25    26   ar
     6    21    26   ar
     7    21    19    1
     8    13    12    1
     9    20    19    1
    10    19    18    1
    11    10     8    1
    12    11     9    2
    13    18    16    1
    14     8     9   am
    15     8     7    1
    16    12     7    1
    17     9     3    1
    18    17    16    1
    19    16    14   am
    20     7     6    2
    21    14    15    2
    22    14     1    1
    23     3     2    1
    24     3     4    1
    25     6     4    2
    26     2     1    1
    27     4     5    1
