@<TRIPOS>MOLECULE
ZINC03003259_replica-1.pdb
 21 22 0 0 0
SMALL
GASTEIGER

@<TRIPOS>ATOM
      1  C10       10.8010   35.5500   61.4090 C.3     0  <0>0        0.0892
      2  C11        9.9650   35.3920   60.3410 C.2     0  <0>0        0.1597
      3  C12        9.3340   36.5440   59.6570 C.2     0  <0>0        0.2538
      4  O2         9.4300   37.7360   59.8890 O.2     0  <0>0       -0.2768
      5  S1         8.3940   35.6970   58.3940 S.3     0  <0>0       -0.0054
      6  C13        8.8600   34.0280   58.8200 C.2     0  <0>0        0.1898
      7  N1         9.6630   34.1820   59.8460 N.2     0  <0>0       -0.3892
      8  C6        11.5140   34.3940   61.9610 C.ar    0  <0>0       -0.0151
      9  C5        10.8260   33.1980   62.2120 C.ar    0  <0>0       -0.0008
     10  C4        11.5010   32.1130   62.7250 C.ar    0  <0>0        0.0363
     11  C3        12.8600   32.2070   63.0050 C.ar    0  <0>0        0.1345
     12  C8        13.5460   33.3910   62.7640 C.ar    0  <0>0        0.0118
     13  C7        12.8830   34.4810   62.2450 C.ar    0  <0>0       -0.0051
     14  C9        15.0180   33.4840   63.0710 C.3     0  <0>0        0.0342
     15  O1        13.5190   31.1350   63.5160 O.3     0  <0>0       -0.4758
     16  C2        12.8120   29.8940   63.5500 C.3     0  <0>0        0.2055
     17  C1        12.5560   29.4920   65.0030 C.3     0  <0>0        0.0512
     18  S2         8.3580   32.5260   58.0470 S.3     0  <0>0       -0.0709
     19  C14        6.8040   32.2250   58.9240 C.3     0  <0>0        0.0911
     20  C15        7.0570   32.2260   60.4100 C.2     0  <0>0       -0.0140
     21  C16        7.6590   31.2070   60.9730 C.2     0  <0>0       -0.0040
@<TRIPOS>BOND
     1    18     6    1
     2    18    19    1
     3     5     6    1
     4     5     3    1
     5     6     7    2
     6    19    20    1
     7     3     4    2
     8     3     2    1
     9     7     2    2
    10     2     1    1
    11    20    21    2
    12     1     8    1
    13     8     9   ar
    14     8    13   ar
    15     9    10   ar
    16    13    12   ar
    17    10    11   ar
    18    12    11   ar
    19    12    14    1
    20    11    15    1
    21    15    16    1
    22    16    17    1
