@<TRIPOS>MOLECULE
ZINC27981537_replica-1.pdb
 23 25 0 0 0
SMALL
GASTEIGER

@<TRIPOS>ATOM
      1  N1        -0.6150   27.0690   52.4120 N.ar    0  <0>0       -0.3309
      2  C3        -1.4730   28.0720   52.0510 C.ar    0  <0>0        0.0335
      3  C4        -1.7110   28.8730   53.1010 C.ar    0  <0>0       -0.0088
      4  C5        -0.9410   28.3380   54.2270 C.ar    0  <0>0        0.0130
      5  C6        -0.2700   27.2010   53.7350 C.ar    0  <0>0        0.0593
      6  C7         0.5540   26.4660   54.5840 C.ar    0  <0>0        0.0173
      7  C8         0.7120   26.8420   55.8850 C.ar    0  <0>0        0.0060
      8  C9         0.0490   27.9710   56.3870 C.ar    0  <0>0        0.0538
      9  C10       -0.7790   28.7210   55.5560 C.ar    0  <0>0        0.0057
     10  C15       -2.5990   30.0900   53.1190 C.3     0  <0>0        0.0322
     11  C16       -2.0650   28.2520   50.6760 C.3     0  <0>0        0.0497
     12  C11        0.2300   28.3650   57.7980 C.2     0  <0>0        0.2509
     13  O1         1.0560   27.7980   58.4860 O.2     0  <0>0       -0.2698
     14  N2        -0.5210   29.3530   58.3250 N.am    0  <0>0       -0.2606
     15  H9        -1.2690   29.8660   57.7020 H       0  <0>0        0.1571
     16  C12       -0.3500   29.7230   59.6520 C.ar    0  <0>0        0.1663
     17  S1        -1.0850   29.0520   61.0750 S.2     0  <0>0       -0.0445
     18  C14       -0.2970   30.1200   62.2710 C.ar    0  <0>0        0.0855
     19  C13        0.4600   30.8960   61.4550 C.ar    0  <0>0        0.1141
     20 Br         -0.4720   30.1600   64.1530 Br      0  <0>0       -0.0402
     21  N3         0.4160   30.6700   60.1560 N.ar    0  <0>0       -0.2218
     22  C2        -0.1350   26.0120   51.5190 C.3     0  <0>0        0.1058
     23  C1        -0.7800   24.6810   51.9100 C.3     0  <0>0        0.0265
@<TRIPOS>BOND
     1    11     2    1
     2    22    23    1
     3    22     1    1
     4     2     1   ar
     5     2     3   ar
     6     1     5   ar
     7     3    10    1
     8     3     4   ar
     9     5     4   ar
    10     5     6   ar
    11     4     9   ar
    12     6     7   ar
    13     9     8   ar
    14     7     8   ar
    15     8    12    1
    16    15    14    1
    17    12    14   am
    18    12    13    2
    19    14    16    1
    20    16    21   ar
    21    16    17   ar
    22    21    19   ar
    23    17    18   ar
    24    19    18   ar
    25    18    20    1
