@<TRIPOS>MOLECULE
ZINC45528866_replica-1.pdb
 28 31 0 0 0
SMALL
GASTEIGER

@<TRIPOS>ATOM
      1  C8        10.3980   35.6310   61.0680 C.ar    0  <0>0        0.1390
      2  C9         9.8680   36.9110   61.1760 C.ar    0  <0>0        0.0366
      3  C10        9.1940   37.4680   60.1200 C.ar    0  <0>0       -0.0011
      4  C11        9.0420   36.7440   58.9290 C.ar    0  <0>0       -0.0212
      5  C12        9.5800   35.4540   58.8260 C.ar    0  <0>0       -0.0011
      6  C13       10.2550   34.9090   59.8870 C.ar    0  <0>0        0.0366
      7  C14        8.3230   37.3340   57.7970 C.3     0  <0>0        0.0398
      8  C15        7.1030   36.8240   57.4150 C.3     0  <0>0        0.1035
      9  C23        6.6120   36.9830   56.0360 C.2     0  <0>0        0.2323
     10  C16        6.2420   36.1070   58.3790 C.ar    0  <0>0       -0.0092
     11  N1         5.4230   36.4780   55.6710 N.am    0  <0>0       -0.2515
     12  O3         7.2930   37.5730   55.2180 O.2     0  <0>0       -0.2743
     13  C22        4.6180   35.8210   56.5220 C.2     0  <0>0        0.2512
     14  H17        5.1300   36.5960   54.7540 H       0  <0>0        0.1578
     15  C21        5.0040   35.6100   57.9240 C.ar    0  <0>0        0.0502
     16  O2         3.5500   35.3950   56.1260 O.2     0  <0>0       -0.2698
     17  C20        4.1710   34.9290   58.8110 C.ar    0  <0>0        0.0042
     18  C19        4.5680   34.7500   60.1200 C.ar    0  <0>0        0.0001
     19  C18        5.7870   35.2400   60.5640 C.ar    0  <0>0       -0.0003
     20  C17        6.6270   35.9180   59.7010 C.ar    0  <0>0       -0.0037
     21  O1        11.0650   35.0840   62.1170 O.3     0  <0>0       -0.4706
     22  C7        12.4030   34.6430   61.8750 C.3     0  <0>0        0.2320
     23  C4        12.6410   33.3420   62.5970 C.ar    0  <0>0        0.0212
     24  C3        11.5970   32.4530   62.7810 C.ar    0  <0>0       -0.0007
     25  C2        11.8160   31.2590   63.4420 C.ar    0  <0>0       -0.0002
     26  C1        13.0770   30.9530   63.9180 C.ar    0  <0>0       -0.0000
     27  C6        14.1200   31.8400   63.7320 C.ar    0  <0>0       -0.0002
     28  C5        13.9010   33.0350   63.0730 C.ar    0  <0>0       -0.0007
@<TRIPOS>BOND
     1    14    11    1
     2    12     9    2
     3    11     9   am
     4    11    13   am
     5     9     8    1
     6    16    13    2
     7    13    15    1
     8     8     7    1
     9     8    10    1
    10     7     4    1
    11    15    10   ar
    12    15    17   ar
    13    10    20   ar
    14    17    18   ar
    15     5     4   ar
    16     5     6   ar
    17     4     3   ar
    18    20    19   ar
    19     6     1   ar
    20     3     2   ar
    21    18    19   ar
    22     1     2   ar
    23     1    21    1
    24    22    21    1
    25    22    23    1
    26    23    24   ar
    27    23    28   ar
    28    24    25   ar
    29    28    27   ar
    30    25    26   ar
    31    27    26   ar
