@<TRIPOS>MOLECULE
ZINC05229260_replica-1.pdb
 28 31 0 0 0
SMALL
GASTEIGER

@<TRIPOS>ATOM
      1  C3         8.2440   36.1700   58.6940 C.3     0  <0>0        0.1859
      2  C4         8.6450   35.5110   57.3590 C.3     0  <0>0        0.0474
      3  C5         8.0190   36.3810   56.2250 C.3     0  <0>0        0.0042
      4  C6         6.8200   37.0760   56.9370 C.3     0  <0>0        0.0041
      5  C7         7.4090   37.4020   58.3200 C.3     0  <0>0        0.0401
      6  C8         6.3490   37.7230   59.3480 C.3     0  <0>0        0.0038
      7  C9         5.3120   36.6040   59.4320 C.3     0  <0>0        0.0004
      8  C10        4.6590   36.4350   58.0680 C.3     0  <0>0        0.0038
      9  C11        5.7110   36.0240   57.0440 C.3     0  <0>0        0.0047
     10  C12        5.0380   35.8930   55.6710 C.3     0  <0>0        0.0254
     11  C13        3.8930   34.9290   55.7690 C.2     0  <0>0       -0.0345
     12  C14        3.2420   34.7160   56.8730 C.2     0  <0>0       -0.0467
     13  C15        3.5610   35.3890   58.1750 C.3     0  <0>0        0.0150
     14  C16        2.2860   36.0180   58.7450 C.3     0  <0>0        0.0062
     15  C17        1.1970   34.9490   58.8480 C.3     0  <0>0        0.0299
     16  C18        0.8560   34.4210   57.4540 C.3     0  <0>0        0.1145
     17  C19        2.0840   33.7320   56.8510 C.3     0  <0>0        0.0509
     18  C20        4.0400   34.3180   59.1570 C.3     0  <0>0        0.0040
     19  C21        8.3370   38.6120   58.1920 C.3     0  <0>0        0.0039
     20  C2         7.4180   35.2140   59.5170 C.2     0  <0>0        0.1869
     21  C1         7.0850   33.8480   58.9790 C.3     0  <0>0        0.0760
     22  O1         7.0210   35.5460   60.6090 O.2     0  <0>0       -0.2924
     23  O3         9.4270   36.5730   59.4340 O.3     0  <0>0       -0.4486
     24  C22       10.1460   35.5970   60.0100 C.2     0  <0>0        0.3177
     25  O4        10.5110   34.6480   59.3550 O.2     0  <0>0       -0.2501
     26  C23       10.4990   35.6840   61.4730 C.3     0  <0>0        0.1212
     27  O2        -0.2170   33.4830   57.5490 O.3     0  <0>0       -0.3841
     28  H25       -0.2760   32.8750   56.7990 H       0  <0>0        0.2103
@<TRIPOS>BOND
     1    10    11    1
     2    10     9    1
     3    11    12    2
     4     3     4    1
     5     3     2    1
     6    28    27    1
     7    17    12    1
     8    17    16    1
     9    12    13    1
    10     4     9    1
    11     4     5    1
    12     9     8    1
    13     2     1    1
    14    16    27    1
    15    16    15    1
    16     8    13    1
    17     8     7    1
    18    13    14    1
    19    13    18    1
    20    19     5    1
    21     5     1    1
    22     5     6    1
    23     1    23    1
    24     1    20    1
    25    14    15    1
    26    21    20    1
    27     6     7    1
    28    25    24    2
    29    23    24    1
    30    20    22    2
    31    24    26    1
