@<TRIPOS>MOLECULE
ZINC37923674_replica-1.pdb
 22 24 0 0 0
SMALL
GASTEIGER

@<TRIPOS>ATOM
      1  C7        -0.1400   26.9500   53.5860 C.ar    0  <0>0        0.0448
      2  C8        -0.0980   25.9250   52.6510 C.ar    0  <0>0        0.0143
      3  C9        -0.8430   26.0180   51.4910 C.ar    0  <0>0        0.0013
      4  C10       -1.6330   27.1290   51.2540 C.ar    0  <0>0        0.0001
      5  C11       -1.6840   28.1560   52.1740 C.ar    0  <0>0        0.0012
      6  C12       -0.9420   28.0730   53.3510 C.ar    0  <0>0        0.0131
      7  N2         0.6110   26.8600   54.7580 N.pl3   0  <0>0       -0.3286
      8  H9         1.4160   27.3910   54.8610 H       0  <0>0        0.1471
      9  C6         0.1830   25.9620   55.8350 C.3     0  <0>0        0.1224
     10  C5        -0.2380   26.7770   57.0310 C.ar    0  <0>0        0.0471
     11  C4        -1.3530   26.6770   57.7990 C.ar    0  <0>0        0.1029
     12  N1        -1.4680   27.5300   58.7980 N.ar    0  <0>0       -0.2415
     13  C3        -0.5470   28.4310   59.0340 C.ar    0  <0>0        0.0880
     14  S1         0.5890   28.1440   57.8260 S.2     0  <0>0       -0.0734
     15  C2        -0.5160   29.4740   60.1210 C.3     0  <0>0        0.0526
     16  C1         0.3320   30.6630   59.6630 C.3     0  <0>0        0.0073
     17  C13       -0.9980   29.1710   54.3460 C.ar    0  <0>0        0.0012
     18  C18       -2.0830   29.2730   55.2150 C.ar    0  <0>0        0.0000
     19  C17       -2.1270   30.2940   56.1420 C.ar    0  <0>0        0.0000
     20  C16       -1.1030   31.2220   56.2010 C.ar    0  <0>0        0.0000
     21  C15       -0.0270   31.1300   55.3380 C.ar    0  <0>0        0.0000
     22  C14        0.0310   30.1090   54.4100 C.ar    0  <0>0        0.0000
@<TRIPOS>BOND
     1     4     3   ar
     2     4     5   ar
     3     3     2   ar
     4     5     6   ar
     5     2     1   ar
     6     6     1   ar
     7     6    17    1
     8     1     7    1
     9    17    22   ar
    10    17    18   ar
    11    22    21   ar
    12     7     8    1
    13     7     9    1
    14    18    19   ar
    15    21    20   ar
    16     9    10    1
    17    19    20   ar
    18    10    11   ar
    19    10    14   ar
    20    11    12   ar
    21    14    13   ar
    22    12    13   ar
    23    13    15    1
    24    16    15    1
