@<TRIPOS>MOLECULE
ZINC14479811_replica-1.pdb
 24 27 0 0 0
SMALL
GASTEIGER

@<TRIPOS>ATOM
      1  C3         4.1810   36.0180   56.6310 C.ar    0  <0>0        0.1383
      2  C4         4.9670   36.5450   55.6180 C.ar    0  <0>0        0.0381
      3  C5         6.2970   36.1850   55.5280 C.ar    0  <0>0        0.0171
      4  C6         6.8420   35.2990   56.4480 C.ar    0  <0>0        0.0410
      5  C7         6.0620   34.7650   57.4610 C.ar    0  <0>0       -0.0063
      6  C8         4.7250   35.1340   57.5460 C.ar    0  <0>0        0.0338
      7  C9         6.6050   33.8030   58.4690 C.3     0  <0>0        0.0255
      8  C10        6.8220   34.4690   59.8070 C.3     0  <0>0        0.0045
      9  C11        7.8950   33.9860   60.3850 C.3     0  <0>0        0.0004
     10  C12        8.5380   32.9260   59.5110 C.3     0  <0>0        0.0023
     11  C13        7.9960   33.2530   58.0890 C.3     0  <0>0        0.0262
     12  C14        8.8620   34.3810   57.5190 C.3     0  <0>0        0.0921
     13  N1         8.1950   34.9460   56.3410 N.pl3   0  <0>0       -0.3308
     14  H16        8.6780   35.0710   55.5090 H       0  <0>0        0.1471
     15  C15        9.0420   35.4550   58.5600 C.ar    0  <0>0       -0.0049
     16  C20        9.9240   35.2630   59.6060 C.ar    0  <0>0       -0.0069
     17  C19       10.0890   36.2490   60.5610 C.ar    0  <0>0       -0.0221
     18  C18        9.3710   37.4260   60.4700 C.ar    0  <0>0       -0.0043
     19  C21       11.0530   36.0400   61.7020 C.3     0  <0>0        0.0310
     20  C17        8.4880   37.6190   59.4250 C.ar    0  <0>0       -0.0006
     21  C16        8.3270   36.6350   58.4670 C.ar    0  <0>0       -0.0027
     22  O1         2.8700   36.3700   56.7260 O.3     0  <0>0       -0.4755
     23  C2         2.1800   35.9850   57.9170 C.3     0  <0>0        0.2055
     24  C1         0.8490   35.3290   57.5440 C.3     0  <0>0        0.0512
@<TRIPOS>BOND
     1    14    13    1
     2     3     2   ar
     3     3     4   ar
     4     2     1   ar
     5    13     4    1
     6    13    12    1
     7     4     5   ar
     8     1    22    1
     9     1     6   ar
    10    22    23    1
    11     5     6   ar
    12     5     7    1
    13    12    11    1
    14    12    15    1
    15    24    23    1
    16    11     7    1
    17    11    10    1
    18    21    15   ar
    19    21    20   ar
    20     7     8    1
    21    15    16   ar
    22    20    18   ar
    23    10     9    1
    24    16    17   ar
    25     8     9    1
    26    18    17   ar
    27    17    19    1
