@<TRIPOS>MOLECULE
ZINC32101645_replica-1.pdb
 22 24 0 0 0
SMALL
GASTEIGER

@<TRIPOS>ATOM
      1  C10        0.0870   28.5120   55.1180 C.ar    0  <0>0        0.0528
      2  C11        0.6480   27.2360   55.3160 C.ar    0  <0>0        0.0046
      3  C12        0.4700   26.2470   54.4070 C.ar    0  <0>0        0.0002
      4  C13       -0.2850   26.4840   53.2410 C.ar    0  <0>0        0.0029
      5  C14       -0.4800   25.4710   52.2880 C.ar    0  <0>0        0.0001
      6  C15       -1.2150   25.7280   51.1700 C.ar    0  <0>0        0.0000
      7  C16       -1.7790   26.9830   50.9550 C.ar    0  <0>0        0.0001
      8  C17       -1.6110   27.9890   51.8570 C.ar    0  <0>0        0.0030
      9  C18       -0.8590   27.7610   53.0220 C.ar    0  <0>0        0.0338
     10  C19       -0.6710   28.7790   53.9780 C.ar    0  <0>0        0.1350
     11  C9         0.2960   29.5660   56.1200 C.2     0  <0>0        0.1018
     12  N1        -0.3040   29.4950   57.2760 N.2     0  <0>0       -0.2441
     13  C5        -0.9790   28.3590   57.6280 C.ar    0  <0>0        0.0773
     14  C4        -0.3170   27.3280   58.3000 C.ar    0  <0>0        0.0185
     15  C3        -1.0040   26.1860   58.6520 C.ar    0  <0>0       -0.0027
     16  C2        -2.3460   26.0580   58.3410 C.ar    0  <0>0       -0.0221
     17  C1        -3.0900   24.8070   58.7300 C.3     0  <0>0        0.0310
     18  C7        -3.0070   27.0720   57.6710 C.ar    0  <0>0       -0.0070
     19  C6        -2.3340   28.2230   57.3170 C.ar    0  <0>0       -0.0045
     20  C8        -3.0570   29.3280   56.5920 C.3     0  <0>0        0.0326
     21  O1        -1.2160   30.0050   53.7890 O.3     0  <0>0       -0.5055
     22  H17       -1.9070   30.2300   54.4260 H       0  <0>0        0.2922
@<TRIPOS>BOND
     1     7     6   ar
     2     7     8   ar
     3     6     5   ar
     4     8     9   ar
     5     5     4   ar
     6     9     4   ar
     7     9    10   ar
     8     4     3   ar
     9    21    10    1
    10    21    22    1
    11    10     1   ar
    12     3     2   ar
    13     1     2   ar
    14     1    11    1
    15    11    12    2
    16    20    19    1
    17    12    13    1
    18    19    13   ar
    19    19    18   ar
    20    13    14   ar
    21    18    16   ar
    22    14    15   ar
    23    16    15   ar
    24    16    17    1
