@<TRIPOS>MOLECULE
ZINC08867511_replica-1.pdb
 34 37 0 0 0
SMALL
GASTEIGER

@<TRIPOS>ATOM
      1  C7         1.0010   32.7470   58.3630 C.2     0  <0>0        0.1399
      2  C8         2.2580   33.0620   57.9040 C.3     0  <0>0        0.1811
      3  S1         2.0750   32.7090   56.1610 S.3     0  <0>0       -0.0392
      4  C9         0.3650   32.1950   56.2110 C.2     0  <0>0        0.2276
      5  N1         0.0850   32.3200   57.4940 N.2     0  <0>0       -0.3812
      6  N2        -0.4520   31.7720   55.1750 N.pl3   0  <0>0       -0.2049
      7  H6        -1.2080   32.3140   54.9010 H       0  <0>0        0.1775
      8  N3        -0.1850   30.5600   54.5230 N.2     0  <0>0       -0.1773
      9  C10       -1.0280   29.5760   54.6140 C.2     0  <0>0        0.1207
     10  C11       -0.7480   28.3010   53.9280 C.ar    0  <0>0        0.0587
     11  C16       -0.0160   27.3020   54.5740 C.ar    0  <0>0        0.0614
     12  C15        0.2420   26.1100   53.9260 C.ar    0  <0>0        0.0116
     13 Cl          0.5680   27.5570   56.1890 Cl      0  <0>0       -0.0821
     14  C14       -0.2220   25.9040   52.6390 C.ar    0  <0>0        0.0032
     15  C13       -0.9480   26.8890   51.9910 C.ar    0  <0>0        0.0297
     16  C12       -1.2190   28.0840   52.6290 C.ar    0  <0>0        0.1424
     17  F1        -1.9320   29.0420   51.9970 F       0  <0>0       -0.2041
     18  N4         3.3710   33.5220   58.6060 N.am    0  <0>0       -0.2878
     19  C17        3.6770   34.8340   58.6000 C.2     0  <0>0        0.2467
     20  O1         2.9820   35.6170   57.9820 O.2     0  <0>0       -0.2701
     21  H11        3.9260   32.8970   59.0990 H       0  <0>0        0.1509
     22  C18        4.8560   35.3210   59.3440 C.ar    0  <0>0        0.0535
     23  C23        5.8040   34.4160   59.8260 C.ar    0  <0>0        0.0068
     24  C22        6.9020   34.8770   60.5200 C.ar    0  <0>0        0.0298
     25  C21        7.0670   36.2350   60.7400 C.ar    0  <0>0        0.1401
     26  C20        6.1290   37.1380   60.2640 C.ar    0  <0>0        0.0298
     27  F2         8.1450   36.6810   61.4210 F       0  <0>0       -0.2042
     28  C19        5.0290   36.6890   59.5650 C.ar    0  <0>0        0.0068
     29  C4         0.6700   32.8800   59.7990 C.ar    0  <0>0        0.0280
     30  C3         0.2490   34.1090   60.3100 C.ar    0  <0>0        0.0023
     31  C2        -0.0580   34.2260   61.6500 C.ar    0  <0>0        0.0001
     32  C1         0.0520   33.1300   62.4870 C.ar    0  <0>0        0.0000
     33  C6         0.4690   31.9090   61.9870 C.ar    0  <0>0        0.0001
     34  C5         0.7730   31.7770   60.6470 C.ar    0  <0>0        0.0023
@<TRIPOS>BOND
     1    15    16   ar
     2    15    14   ar
     3    17    16    1
     4    16    10   ar
     5    14    12   ar
     6    12    11   ar
     7    10    11   ar
     8    10     9    1
     9     8     9    2
    10     8     6    1
    11    11    13    1
    12     7     6    1
    13     6     4    1
    14     3     4    1
    15     3     2    1
    16     4     5    2
    17     5     1    2
    18     2     1    1
    19     2    18    1
    20    20    19    2
    21     1    29    1
    22    19    18   am
    23    19    22    1
    24    18    21    1
    25    22    28   ar
    26    22    23   ar
    27    28    26   ar
    28    29    30   ar
    29    29    34   ar
    30    23    24   ar
    31    26    25   ar
    32    30    31   ar
    33    24    25   ar
    34    34    33   ar
    35    25    27    1
    36    31    32   ar
    37    33    32   ar
