@<TRIPOS>MOLECULE
ZINC43740564_replica-1.pdb
 26 29 0 0 0
SMALL
GASTEIGER

@<TRIPOS>ATOM
      1  C1         7.5260   34.0780   60.4860 C.3     0  <0>0        0.0000
      2  C2         7.4310   35.4240   59.7610 C.3     0  <0>0        0.0002
      3  C3         7.3230   36.5460   60.7900 C.3     0  <0>0        0.0037
      4  C4         8.5860   36.5990   61.6520 C.3     0  <0>0        0.0436
      5  C5         9.8230   36.7910   60.7760 C.3     0  <0>0        0.1694
      6  C6         9.9270   35.6560   59.7550 C.3     0  <0>0        0.0436
      7  C7         8.6670   35.6490   58.8920 C.3     0  <0>0        0.0036
      8  C8         8.7710   34.6060   57.7840 C.3     0  <0>0        0.0001
      9  C9         7.5230   34.6660   56.8900 C.3     0  <0>0        0.0000
     10  C10        6.5970   35.7460   57.4340 C.3     0  <0>0        0.0001
     11  C11        6.1910   35.3860   58.8650 C.3     0  <0>0        0.0000
     12  C12        5.0840   36.3110   59.3420 C.3     0  <0>0        0.0001
     13  C13        3.7930   36.0820   58.5400 C.3     0  <0>0        0.0016
     14  C14        4.0860   35.4830   57.1890 C.3     0  <0>0        0.0165
     15  C15        5.3950   36.0360   56.5940 C.3     0  <0>0        0.0016
     16  C16        5.3640   35.4630   55.1710 C.3     0  <0>0        0.0017
     17  C17        3.8680   35.6090   54.7690 C.3     0  <0>0        0.0196
     18  C18        3.0900   35.8900   56.0800 C.3     0  <0>0        0.0719
     19  C20        4.0660   33.9550   57.2490 C.3     0  <0>0        0.0016
     20  N1         1.8940   35.0560   56.1590 N.am    0  <0>0       -0.2988
     21  H28        1.9060   34.1550   55.8000 H       0  <0>0        0.1498
     22  C19        0.7730   35.5380   56.7310 C.2     0  <0>0        0.2995
     23  O1         0.4220   35.1300   57.8180 O.2     0  <0>0       -0.2652
     24  O2        10.9920   36.7980   61.6000 O.3     0  <0>0       -0.4447
     25  C21       11.4530   35.6070   62.0130 C.2     0  <0>0        0.4180
     26  O3        12.1030   35.5310   63.0290 O.2     0  <0>0       -0.2376
@<TRIPOS>BOND
     1    17    16    1
     2    17    18    1
     3    16    15    1
     4    21    20    1
     5    18    20    1
     6    18    14    1
     7    20    22   am
     8    15    14    1
     9    15    10    1
    10    22    23    2
    11     9    10    1
    12     9     8    1
    13    14    19    1
    14    14    13    1
    15    10    11    1
    16     8     7    1
    17    13    12    1
    18    11    12    1
    19    11     2    1
    20     7     6    1
    21     7     2    1
    22     6     5    1
    23     2     1    1
    24     2     3    1
    25     5    24    1
    26     5     4    1
    27     3     4    1
    28    24    25    1
    29    25    26    2
