@<TRIPOS>MOLECULE
ZINC01212606_replica-1.pdb
 23 25 0 0 0
SMALL
GASTEIGER

@<TRIPOS>ATOM
      1  C7        -0.7120   29.3430   54.3050 C.ar    0  <0>0        0.1455
      2  C8        -1.8460   30.0480   54.5900 C.ar    0  <0>0        0.0408
      3  C9        -1.4610   31.1610   55.3440 C.ar    0  <0>0        0.0454
      4  C10       -0.0910   31.0930   55.4820 C.ar    0  <0>0        0.1987
      5  O1         0.3390   29.9830   54.8470 O.2     0  <0>0       -0.4489
      6  C11        0.7500   32.0560   56.1960 C.2     0  <0>0        0.2853
      7  O2         0.4670   32.3850   57.3340 O.2     0  <0>0       -0.2664
      8  N1         1.8370   32.5770   55.5940 N.am    0  <0>0       -0.2633
      9  H7         2.0210   32.3720   54.6650 H       0  <0>0        0.1567
     10  C12        2.6970   33.4100   56.3080 C.ar    0  <0>0        0.1345
     11  N2         3.7050   32.8840   56.9860 N.ar    0  <0>0       -0.2285
     12  C16        4.5410   33.6360   57.6760 C.ar    0  <0>0        0.1069
     13  C15        4.3930   35.0090   57.7150 C.ar    0  <0>0        0.0538
     14  C14        3.3470   35.5990   57.0160 C.ar    0  <0>0        0.0111
     15 Br          5.6000   36.0730   58.7080 Br      0  <0>0       -0.0474
     16  C13        2.4870   34.7840   56.3020 C.ar    0  <0>0        0.0350
     17  C6        -0.6500   28.0880   53.5310 C.ar    0  <0>0        0.0346
     18  C1         0.0300   26.9810   54.0450 C.ar    0  <0>0        0.0039
     19  C2         0.0800   25.8090   53.3180 C.ar    0  <0>0        0.0115
     20  C3        -0.5310   25.7320   52.0790 C.ar    0  <0>0        0.0577
     21  C4        -1.2020   26.8290   51.5620 C.ar    0  <0>0        0.0115
     22 Cl         -0.4570   24.2570   51.1680 Cl      0  <0>0       -0.0822
     23  C5        -1.2640   28.0040   52.2800 C.ar    0  <0>0        0.0039
@<TRIPOS>BOND
     1    22    20    1
     2    21    20   ar
     3    21    23   ar
     4    20    19   ar
     5    23    17   ar
     6    19    18   ar
     7    17    18   ar
     8    17     1    1
     9     1     2   ar
    10     1     5   ar
    11     2     3   ar
    12     9     8    1
    13     5     4   ar
    14     3     4   ar
    15     4     6    1
    16     8     6   am
    17     8    10    1
    18     6     7    2
    19    16    10   ar
    20    16    14   ar
    21    10    11   ar
    22    11    12   ar
    23    14    13   ar
    24    12    13   ar
    25    13    15    1
