@<TRIPOS>MOLECULE
ZINC00445800_replica-1.pdb
 20 22 0 0 0
SMALL
GASTEIGER

@<TRIPOS>ATOM
      1  C8        -1.0470   30.4110   54.7740 C.2     0  <0>0        0.1924
      2  C9        -2.0290   30.5620   55.8660 C.2     0  <0>0        0.3738
      3  O1        -3.0900   29.9820   55.9890 O.2     0  <0>0       -0.2419
      4  O2        -1.4940   31.4800   56.7000 O.3     0  <0>0       -0.3907
      5  C10       -0.3090   31.8810   56.2000 C.2     0  <0>0        0.2904
      6  N1        -0.0310   31.2690   55.0770 N.2     0  <0>0       -0.3645
      7  C7        -1.1390   29.5820   53.6770 C.3     0  <0>0        0.0931
      8  C3        -0.6290   28.2090   53.7510 C.ar    0  <0>0       -0.0035
      9  C2         0.0590   27.7730   54.8910 C.ar    0  <0>0       -0.0030
     10  C1         0.5350   26.4810   54.9520 C.ar    0  <0>0        0.0006
     11  C6         0.3360   25.6140   53.8910 C.ar    0  <0>0        0.0122
     12  C5        -0.3470   26.0330   52.7610 C.ar    0  <0>0        0.0679
     13  C4        -0.8270   27.3250   52.6810 C.ar    0  <0>0        0.0646
     14 Cl         -0.5970   24.9330   51.4420 Cl      0  <0>0       -0.0814
     15 Cl         -1.6780   27.8520   51.2620 Cl      0  <0>0       -0.0817
     16  C11        0.5590   32.8770   56.8350 C.ar    0  <0>0        0.0959
     17  S1         2.2800   33.2310   56.5210 S.2     0  <0>0       -0.0807
     18  C14        2.4970   34.5090   57.6730 C.ar    0  <0>0        0.0356
     19  C13        1.2730   34.6160   58.2520 C.ar    0  <0>0        0.0077
     20  C12        0.2600   33.7860   57.8370 C.ar    0  <0>0        0.0128
@<TRIPOS>BOND
     1    15    13    1
     2    14    12    1
     3    13    12   ar
     4    13     8   ar
     5    12    11   ar
     6     7     8    1
     7     7     1    1
     8     8     9   ar
     9    11    10   ar
    10     1     6    2
    11     1     2    1
    12     9    10   ar
    13     6     5    2
    14     2     3    2
    15     2     4    1
    16     5     4    1
    17     5    16    1
    18    17    16   ar
    19    17    18   ar
    20    16    20   ar
    21    18    19   ar
    22    20    19   ar
