@<TRIPOS>MOLECULE
ZINC49546047_replica-1.pdb
 18 19 0 0 0
SMALL
GASTEIGER

@<TRIPOS>ATOM
      1  C4         7.7110   37.3930   59.3860 C.3     0  <0>0        0.0989
      2  C3         7.6360   38.7260   58.6420 C.3     0  <0>0        0.0246
      3  C2         8.4420   38.6340   57.3450 C.3     0  <0>0        0.0021
      4  C1         7.4840   38.5270   56.1560 C.3     0  <0>0        0.0001
      5  C5         6.5310   36.5360   59.0040 C.ar    0  <0>0        0.0250
      6  S1         6.4570   35.1760   57.8510 S.2     0  <0>0       -0.0892
      7  C8         4.7260   34.7820   58.0380 C.ar    0  <0>0        0.0352
      8  C7         4.3240   35.7040   58.9460 C.ar    0  <0>0        0.0072
      9  C6         5.2500   36.6040   59.4430 C.ar    0  <0>0        0.0043
     10  N1         8.9530   36.7020   59.0280 N.pl3   0  <0>0       -0.3156
     11  H12        9.1870   36.5790   58.0950 H       0  <0>0        0.1485
     12  C9         9.7940   36.2220   60.0250 C.ar    0  <0>0        0.1288
     13  N2        10.0760   36.9850   61.0690 N.ar    0  <0>0       -0.2285
     14  C13       10.8650   36.5670   62.0410 C.ar    0  <0>0        0.1116
     15  C12       11.4370   35.3100   61.9960 C.ar    0  <0>0        0.0769
     16  C11       11.1710   34.4790   60.9150 C.ar    0  <0>0        0.0158
     17 Cl         12.4780   34.7740   63.2780 Cl      0  <0>0       -0.0806
     18  C10       10.3350   34.9450   59.9150 C.ar    0  <0>0        0.0350
@<TRIPOS>BOND
     1     4     3    1
     2     3     2    1
     3     6     7   ar
     4     6     5   ar
     5     7     8   ar
     6    11    10    1
     7     2     1    1
     8     8     9   ar
     9     5     1    1
    10     5     9   ar
    11    10     1    1
    12    10    12    1
    13    18    12   ar
    14    18    16   ar
    15    12    13   ar
    16    16    15   ar
    17    13    14   ar
    18    15    14   ar
    19    15    17    1
