@<TRIPOS>MOLECULE
ZINC51920004_replica-1.pdb
 21 22 0 0 0
SMALL
GASTEIGER

@<TRIPOS>ATOM
      1  O1         7.7580   35.0730   59.0840 O.3     0  <0>0       -0.3563
      2  C6         8.9870   35.6080   58.5880 C.3     0  <0>0        0.1151
      3  C5         9.0440   37.1090   58.8780 C.3     0  <0>0        0.0272
      4  C4         8.9600   37.3390   60.3880 C.3     0  <0>0        0.0024
      5  C3        10.1340   36.6420   61.0780 C.3     0  <0>0        0.0002
      6  C2        10.0770   35.1410   60.7870 C.3     0  <0>0        0.0024
      7  C1        11.2510   34.4430   61.4770 C.3     0  <0>0        0.0001
      8  C7        10.1610   34.9100   59.2770 C.3     0  <0>0        0.0295
      9  C15        7.8700   37.8060   58.1890 C.3     0  <0>0        0.0023
     10  C16        7.2050   38.7750   59.1690 C.3     0  <0>0        0.0001
     11  C17        8.3800   38.5820   56.9730 C.3     0  <0>0        0.0001
     12  C8         7.1000   34.1880   58.1740 C.3     0  <0>0        0.1420
     13  C9         7.7080   34.3460   56.7790 C.3     0  <0>0        0.0300
     14  C10        6.6150   34.7530   55.7890 C.3     0  <0>0       -0.0189
     15  C14        5.9790   33.4980   55.1860 C.3     0  <0>0       -0.0816
     16  N1         4.9270   33.8860   54.2380 N.4     0  <0>0        0.3838
     17  C13        3.8590   34.6030   54.9440 C.3     0  <0>0       -0.0817
     18  H24        4.5470   33.0600   53.8030 H       0  <0>0       -0.0845
     19  H34        5.3210   34.4860   53.5290 H       0  <0>0       -0.0845
     20  C12        4.4140   35.9000   55.5370 C.3     0  <0>0       -0.0234
     21  C11        5.5410   35.5640   56.5190 C.3     0  <0>0       -0.0042
@<TRIPOS>BOND
     1    19    16    1
     2    18    16    1
     3    16    17    1
     4    16    15    1
     5    17    20    1
     6    15    14    1
     7    20    21    1
     8    14    21    1
     9    14    13    1
    10    13    12    1
    11    11     9    1
    12    12     1    1
    13     9     3    1
    14     9    10    1
    15     2     3    1
    16     2     1    1
    17     2     8    1
    18     3     4    1
    19     8     6    1
    20     4     5    1
    21     6     5    1
    22     6     7    1
