@<TRIPOS>MOLECULE
ZINC36491313_replica-1.pdb
 26 26 0 0 0
SMALL
GASTEIGER

@<TRIPOS>ATOM
      1  C6         6.6930   35.2860   57.6270 C.3     0  <0>0        0.1743
      2  C5         5.4430   35.4570   58.4510 C.2     0  <0>0       -0.0020
      3  C4         4.3200   35.8050   57.8740 C.2     0  <0>0       -0.0286
      4  C3         3.0710   35.9760   58.6980 C.3     0  <0>0        0.0258
      5  C2         1.8480   35.9700   57.7770 C.3     0  <0>0        0.0047
      6  C1         0.8140   34.9760   58.3090 C.3     0  <0>0        0.0004
      7  C7         7.1550   33.8540   57.7050 C.2     0  <0>0        0.2448
      8  O1         8.0740   33.4740   57.0100 O.2     0  <0>0       -0.2729
      9  N1         6.5470   32.9950   58.5470 N.am    0  <0>0       -0.3059
     10  H11        5.8130   33.2980   59.1030 H       0  <0>0        0.1494
     11  C8         6.9970   31.6030   58.6230 C.3     0  <0>0        0.0569
     12  C9         6.1710   30.8560   59.6720 C.3     0  <0>0        0.0196
     13  C10        6.8180   30.9330   57.2590 C.3     0  <0>0        0.0196
     14  C11        8.4760   31.5670   59.0180 C.3     0  <0>0        0.0196
     15  N2         7.7440   36.1670   58.1440 N.am    0  <0>0       -0.2680
     16  C18        8.1600   37.2200   57.4120 C.2     0  <0>0        0.2455
     17  O2         8.9360   38.0250   57.8910 O.2     0  <0>0       -0.2702
     18  C12        8.3410   35.9060   59.4560 C.3     0  <0>0        0.0763
     19  C17        9.8160   35.5420   59.2820 C.3     0  <0>0        0.0198
     20  C16       10.4400   35.2680   60.6520 C.3     0  <0>0        0.0017
     21  C15       10.3230   36.5180   61.5240 C.3     0  <0>0        0.0001
     22  C14        8.8470   36.8820   61.6990 C.3     0  <0>0        0.0017
     23  C13        8.2240   37.1570   60.3290 C.3     0  <0>0        0.0198
     24  C19        7.6790   37.3930   56.0330 C.2     0  <0>0        0.0317
     25  C20        6.9690   38.4680   55.7060 C.2     0  <0>0        0.0000
     26  C21        7.9890   36.3500   54.9900 C.3     0  <0>0        0.0358
@<TRIPOS>BOND
     1    26    24    1
     2    25    24    2
     3    24    16    1
     4     8     7    2
     5    13    11    1
     6    16    17    2
     7    16    15   am
     8     1     7    1
     9     1    15    1
    10     1     2    1
    11     7     9   am
    12     5     6    1
    13     5     4    1
    14     3     2    2
    15     3     4    1
    16    15    18    1
    17     9    11    1
    18     9    10    1
    19    11    14    1
    20    11    12    1
    21    19    18    1
    22    19    20    1
    23    18    23    1
    24    23    22    1
    25    20    21    1
    26    21    22    1
