@<TRIPOS>MOLECULE
ZINC02295560_replica-1.pdb
 30 33 0 0 0
SMALL
GASTEIGER

@<TRIPOS>ATOM
      1  C5         0.4080   25.0240   54.7380 C.2     0  <0>0        0.1046
      2  C6        -0.0780   25.6960   53.6190 C.2     0  <0>0       -0.0039
      3  C7        -0.3250   27.0430   53.6900 C.2     0  <0>0       -0.0340
      4  C8        -0.0750   27.7280   54.9040 C.3     0  <0>0        0.1135
      5  C9        -0.2740   29.1630   55.1810 C.2     0  <0>0        0.0683
      6  C10        0.0540   29.5880   56.4740 C.3     0  <0>0        0.1948
      7  C11       -0.0920   30.9170   56.8470 C.2     0  <0>0        0.3096
      8  N1        -0.5510   31.7800   55.9420 N.2     0  <0>0       -0.0400
      9  C12       -0.8560   31.3640   54.7260 C.3     0  <0>0        0.3909
     10  N2        -0.7320   30.1180   54.3410 N.2     0  <0>0       -0.2252
     11  S1         0.6080   28.1220   57.3000 S.3     0  <0>0       -0.0690
     12  C18        0.4160   26.9590   55.9710 C.2     0  <0>0        0.1434
     13  N4         0.6380   25.6660   55.8640 N.2     0  <0>0       -0.4040
     14  C19       -0.8610   27.8400   52.5340 C.3     0  <0>0        0.0226
     15  C20       -0.6790   27.0770   51.2230 C.3     0  <0>0        0.0047
     16  C21       -1.2290   25.6590   51.4090 C.3     0  <0>0        0.0051
     17  C22       -0.3110   24.8980   52.3630 C.3     0  <0>0        0.0280
     18  N3         0.2330   31.3360   58.1280 N.pl3   0  <0>0       -0.2217
     19  H11       -0.4310   31.2950   58.8350 H       0  <0>0        0.2919
     20  C13        1.5790   31.8410   58.4140 C.3     0  <0>0        0.1966
     21  C14        1.4880   32.9900   59.4200 C.3     0  <0>0        0.0279
     22  C15        0.6050   34.1000   58.8470 C.3     0  <0>0       -0.0733
     23  N5         1.4090   34.9140   57.9110 N.4     0  <0>0        0.3842
     24  C16        0.5250   35.5580   56.9160 C.3     0  <0>0       -0.1008
     25  C17        2.1630   35.9430   58.6570 C.3     0  <0>0       -0.1008
     26  H32        2.0720   34.3020   57.4230 H       0  <0>0       -0.0799
     27  C4         0.6740   23.5430   54.6580 C.3     0  <0>0        0.0586
     28  C3         0.5690   22.9300   56.0570 C.3     0  <0>0        0.0074
     29  C2        -0.2220   21.6230   55.9830 C.3     0  <0>0        0.0004
     30  C1        -1.2060   21.5540   57.1520 C.3     0  <0>0        0.0000
@<TRIPOS>BOND
     1    15    16    1
     2    15    14    1
     3    16    17    1
     4    17     2    1
     5    14     3    1
     6     2     3    2
     7     2     1    1
     8     3     4    1
     9    10     9    1
    10    10     5    2
    11    27     1    1
    12    27    28    1
    13     9     8    1
    14     1    13    2
    15     4     5    1
    16     4    12    1
    17     5     6    1
    18    13    12    2
    19     8     7    2
    20    12    11    1
    21    29    28    1
    22    29    30    1
    23     6     7    1
    24     6    11    1
    25     7    18    1
    26    24    23    1
    27    26    23    1
    28    23    25    1
    29    23    22    1
    30    18    20    1
    31    18    19    1
    32    20    21    1
    33    22    21    1
