@<TRIPOS>MOLECULE
ZINC05156752_replica-1.pdb
 24 27 0 0 0
SMALL
GASTEIGER

@<TRIPOS>ATOM
      1  C7         8.2580   36.4340   58.4180 C.2     0  <0>0        0.1569
      2  N1         6.9910   36.0710   58.3010 N.2     0  <0>0       -0.3991
      3  C8         6.2600   36.4540   57.2720 C.2     0  <0>0        0.1209
      4  C9         6.8260   37.2330   56.2970 C.3     0  <0>0        0.1233
      5  S1         8.4880   37.4050   56.9350 S.3     0  <0>0       -0.0748
      6  C10        4.8380   36.0400   57.1680 C.ar    0  <0>0        0.0277
      7  C15        4.1110   35.7440   58.3190 C.ar    0  <0>0        0.0200
      8  C14        2.7870   35.3630   58.2150 C.ar    0  <0>0        0.0849
      9  C13        2.1830   35.2630   56.9610 C.ar    0  <0>0        0.1526
     10  N2         2.0360   35.0660   59.3630 N.am    0  <0>0       -0.2785
     11  C12        2.9090   35.5530   55.8170 C.ar    0  <0>0        0.0383
     12  O2         0.8810   34.8780   56.8740 O.3     0  <0>0       -0.4643
     13  C11        4.2310   35.9410   55.9180 C.ar    0  <0>0        0.0054
     14  C17        0.4180   33.9500   57.8590 C.3     0  <0>0        0.2897
     15  C16        0.8700   34.3960   59.2270 C.2     0  <0>0        0.2707
     16  O1         0.1900   34.1540   60.2010 O.2     0  <0>0       -0.2707
     17  H9         2.3490   35.3370   60.2400 H       0  <0>0        0.1551
     18  C6         9.2280   36.1140   59.4860 C.ar    0  <0>0        0.0356
     19  C1         9.4170   36.9980   60.5490 C.ar    0  <0>0        0.0036
     20  C2        10.3190   36.6920   61.5470 C.ar    0  <0>0        0.0068
     21  C3        11.0430   35.5130   61.4910 C.ar    0  <0>0        0.0346
     22  C4        10.8640   34.6340   60.4360 C.ar    0  <0>0        0.0068
     23 Br         12.2780   35.1000   62.8610 Br      0  <0>0       -0.0490
     24  C5         9.9650   34.9290   59.4330 C.ar    0  <0>0        0.0036
@<TRIPOS>BOND
     1    11    13   ar
     2    11     9   ar
     3    13     6   ar
     4     4     5    1
     5     4     3    1
     6    12     9    1
     7    12    14    1
     8     5     1    1
     9     9     8   ar
    10     6     3    1
    11     6     7   ar
    12     3     2    2
    13    14    15    1
    14     8     7   ar
    15     8    10    1
    16     2     1    2
    17     1    18    1
    18    15    10   am
    19    15    16    2
    20    10    17    1
    21    24    18   ar
    22    24    22   ar
    23    18    19   ar
    24    22    21   ar
    25    19    20   ar
    26    21    20   ar
    27    21    23    1
