@<TRIPOS>MOLECULE
ZINC37192083_replica-1.pdb
 23 24 0 0 0
SMALL
GASTEIGER

@<TRIPOS>ATOM
      1  C7        10.6110   36.0760   61.9510 C.3     0  <0>0        0.0742
      2  S1        10.6580   34.3980   61.2630 S.3     0  <0>0       -0.1127
      3  C5        12.0080   33.6330   62.0980 C.ar    0  <0>0        0.0252
      4  C4        11.8240   32.4260   62.7610 C.ar    0  <0>0        0.0100
      5  C3        12.8850   31.8300   63.4140 C.ar    0  <0>0        0.0719
      6  C2        14.1290   32.4320   63.4090 C.ar    0  <0>0        0.0039
      7  C1        14.3170   33.6350   62.7500 C.ar    0  <0>0        0.0004
      8  C6        13.2610   34.2360   62.0950 C.ar    0  <0>0        0.0061
      9  C14       12.6860   30.5210   64.1320 C.3     0  <0>0        0.4186
     10  F1        13.4200   30.5260   65.3240 F       0  <0>0       -0.1659
     11  F2        11.3280   30.3500   64.4230 F       0  <0>0       -0.1659
     12  F3        13.1250   29.4700   63.3190 F       0  <0>0       -0.1659
     13  C8        10.0420   37.0390   60.9060 C.3     0  <0>0        0.0742
     14  S2         8.3060   36.6250   60.5850 S.3     0  <0>0       -0.1112
     15  C9         8.1590   36.7320   58.8320 C.ar    0  <0>0        0.0445
     16  C13        7.8120   35.6130   58.0890 C.ar    0  <0>0        0.1064
     17  N1         7.6960   35.6860   56.7750 N.ar    0  <0>0       -0.2291
     18  C12        7.9130   36.8150   56.1200 C.ar    0  <0>0        0.1254
     19  C11        8.2690   37.9750   56.7990 C.ar    0  <0>0        0.0344
     20  C10        8.3970   37.9390   58.1750 C.ar    0  <0>0        0.0106
     21  N2         7.7830   36.8400   54.7330 N.pl3   0  <0>0       -0.3426
     22  H12        7.0420   36.3800   54.3070 H       0  <0>0        0.1437
     23  H13        8.4310   37.3170   54.1930 H       0  <0>0        0.1437
@<TRIPOS>BOND
     1    23    21    1
     2    22    21    1
     3    21    18    1
     4    18    17   ar
     5    18    19   ar
     6    17    16   ar
     7    19    20   ar
     8    16    15   ar
     9    20    15   ar
    10    15    14    1
    11    14    13    1
    12    13     1    1
    13     2     1    1
    14     2     3    1
    15     8     3   ar
    16     8     7   ar
    17     3     4   ar
    18     7     6   ar
    19     4     5   ar
    20    12     9    1
    21     6     5   ar
    22     5     9    1
    23     9    11    1
    24     9    10    1
