@<TRIPOS>MOLECULE
ZINC34840760_replica-1.pdb
 22 23 0 0 0
SMALL
GASTEIGER

@<TRIPOS>ATOM
      1  C10       11.0360   35.6070   61.4450 C.ar    0  <0>0        0.0481
      2  C11       10.8110   34.8330   60.3130 C.ar    0  <0>0        0.0141
      3  C12        9.8410   35.2080   59.4050 C.ar    0  <0>0       -0.0050
      4  C13        9.0950   36.3530   59.6200 C.ar    0  <0>0       -0.0420
      5  C14        9.3170   37.1260   60.7450 C.ar    0  <0>0       -0.0050
      6  C15       10.2820   36.7530   61.6600 C.ar    0  <0>0        0.0141
      7  N1        12.0160   35.2310   62.3660 N.pl3   0  <0>0       -0.3018
      8  C9        11.9950   35.7800   63.7240 C.3     0  <0>0        0.1125
      9  C8        13.0660   34.2850   61.9750 C.3     0  <0>0        0.1178
     10  C5        12.8860   32.9940   62.7300 C.ar    0  <0>0       -0.0024
     11  C4        13.9600   32.4190   63.3820 C.ar    0  <0>0       -0.0029
     12  C3        13.7940   31.2350   64.0760 C.ar    0  <0>0       -0.0045
     13  C2        12.5540   30.6260   64.1180 C.ar    0  <0>0       -0.0219
     14  C1        12.3730   29.3350   64.8750 C.3     0  <0>0        0.0310
     15  C7        11.4810   31.1990   63.4610 C.ar    0  <0>0       -0.0045
     16  C6        11.6450   32.3850   62.7710 C.ar    0  <0>0       -0.0029
     17  C16        8.0380   36.7590   58.6240 C.3     0  <0>0       -0.0386
     18  C17        8.4070   36.2230   57.2400 C.3     0  <0>0       -0.0189
     19  N2         7.9520   38.2250   58.5750 N.4     0  <0>0        0.3862
     20  C18        8.5620   38.7080   57.3280 C.3     0  <0>0       -0.1051
     21  H21        6.9840   38.5060   58.6070 H       0  <0>0       -0.0841
     22  H25        8.4430   38.6180   59.3630 H       0  <0>0       -0.0841
@<TRIPOS>BOND
     1    18    17    1
     2    20    19    1
     3    19    21    1
     4    19    17    1
     5    19    22    1
     6    17     4    1
     7     3     4   ar
     8     3     2   ar
     9     4     5   ar
    10     2     1   ar
    11     5     6   ar
    12     1     6   ar
    13     1     7    1
    14     9     7    1
    15     9    10    1
    16     7     8    1
    17    10    16   ar
    18    10    11   ar
    19    16    15   ar
    20    11    12   ar
    21    15    13   ar
    22    12    13   ar
    23    13    14    1
