@<TRIPOS>MOLECULE
ZINC41393466_replica-1.pdb
 21 22 0 0 0
SMALL
GASTEIGER

@<TRIPOS>ATOM
      1  N1        -0.0780   30.6460   56.9800 N.ar    0  <0>0       -0.2957
      2  C4         0.8830   31.1830   57.7920 C.ar    0  <0>0        0.1427
      3  N2         1.3600   30.2150   58.5220 N.ar    0  <0>0       -0.1329
      4  N3         0.7710   29.1110   58.2300 N.ar    0  <0>0       -0.1224
      5  C5        -0.1260   29.3160   57.2930 C.ar    0  <0>0        0.1929
      6  S1        -1.1860   28.1090   56.5730 S.3     0  <0>0       -0.0753
      7  C6        -0.0460   26.8630   55.9090 C.3     0  <0>0        0.0698
      8  C7         0.6410   27.4140   54.6590 C.3     0  <0>0        0.0384
      9  C8        -0.0800   26.9220   53.4310 C.ar    0  <0>0       -0.0213
     10  C13       -0.8240   27.8010   52.6660 C.ar    0  <0>0       -0.0042
     11  C12       -1.4820   27.3500   51.5380 C.ar    0  <0>0       -0.0003
     12  C11       -1.4040   26.0170   51.1790 C.ar    0  <0>0       -0.0000
     13  C10       -0.6640   25.1370   51.9470 C.ar    0  <0>0       -0.0003
     14  C9        -0.0020   25.5890   53.0730 C.ar    0  <0>0       -0.0042
     15  C2        -0.8920   31.3490   55.9870 C.3     0  <0>0        0.0886
     16  C1        -0.4290   30.9620   54.5810 C.3     0  <0>0        0.0246
     17  C3        -2.3620   30.9620   56.1650 C.3     0  <0>0        0.0246
     18  C14        1.3110   32.6270   57.8320 C.3     0  <0>0        0.0526
     19  C15        0.0780   33.5200   57.9950 C.3     0  <0>0        0.0076
     20  C16        2.2570   32.8450   59.0160 C.3     0  <0>0        0.0076
     21  C17        2.0310   32.9830   56.5310 C.3     0  <0>0        0.0076
@<TRIPOS>BOND
     1    12    11   ar
     2    12    13   ar
     3    11    10   ar
     4    13    14   ar
     5    10     9   ar
     6    14     9   ar
     7     9     8    1
     8    16    15    1
     9     8     7    1
    10     7     6    1
    11    15    17    1
    12    15     1    1
    13    21    18    1
    14     6     5    1
    15     1     5   ar
    16     1     2   ar
    17     5     4   ar
    18     2    18    1
    19     2     3   ar
    20    18    19    1
    21    18    20    1
    22     4     3   ar
