@<TRIPOS>MOLECULE
ZINC09650456_replica-1.pdb
 26 28 0 0 0
SMALL
GASTEIGER

@<TRIPOS>ATOM
      1  C1         6.5890   34.0280   57.7250 C.3     0  <0>0        0.1324
      2  N1         7.1090   35.0770   56.8450 N.ar    0  <0>0       -0.3045
      3  C2         8.1180   35.9780   57.1440 C.ar    0  <0>0        0.0808
      4  C3         8.2690   36.7680   56.0490 C.ar    0  <0>0        0.1182
      5  N2         7.3980   36.3630   55.1160 N.ar    0  <0>0       -0.2195
      6  C4         6.6930   35.3540   55.5790 C.ar    0  <0>0        0.1718
      7  S1         5.4230   34.5000   54.7040 S.3     0  <0>0       -0.0675
      8  C5         4.0080   35.5590   55.0950 C.3     0  <0>0        0.1501
      9  C6         3.2340   34.9580   56.2400 C.2     0  <0>0        0.2376
     10  O1         2.5820   33.9490   56.0690 O.2     0  <0>0       -0.2738
     11  N3         3.2660   35.5430   57.4540 N.am    0  <0>0       -0.2832
     12  H7         3.7240   36.3890   57.5730 H       0  <0>0        0.1549
     13  C7         2.6350   34.9290   58.5430 C.ar    0  <0>0        0.0504
     14  C12        1.2970   35.1890   58.8100 C.ar    0  <0>0        0.0152
     15  C11        0.6780   34.5810   59.8840 C.ar    0  <0>0        0.0080
     16  C10        1.3900   33.7130   60.6930 C.ar    0  <0>0        0.0346
     17  C9         2.7210   33.4510   60.4290 C.ar    0  <0>0        0.0080
     18 Br          0.5380   32.8820   62.1630 Br      0  <0>0       -0.0490
     19  C8         3.3450   34.0530   59.3540 C.ar    0  <0>0        0.0152
     20  C13        8.8760   36.0670   58.4090 C.ar    0  <0>0        0.0174
     21  C18        8.7370   37.1860   59.2320 C.ar    0  <0>0        0.0023
     22  C17        9.4480   37.2640   60.4120 C.ar    0  <0>0        0.0114
     23  C16       10.2990   36.2350   60.7800 C.ar    0  <0>0        0.0577
     24  C15       10.4420   35.1230   59.9660 C.ar    0  <0>0        0.0114
     25 Cl         11.1910   36.3400   62.2650 Cl      0  <0>0       -0.0822
     26  C14        9.7360   35.0340   58.7850 C.ar    0  <0>0        0.0023
@<TRIPOS>BOND
     1     7     8    1
     2     7     6    1
     3     8     9    1
     4     5     6   ar
     5     5     4   ar
     6     6     2   ar
     7     4     3   ar
     8    10     9    2
     9     9    11   am
    10     2     3   ar
    11     2     1    1
    12     3    20    1
    13    11    12    1
    14    11    13    1
    15    20    26   ar
    16    20    21   ar
    17    13    14   ar
    18    13    19   ar
    19    26    24   ar
    20    14    15   ar
    21    21    22   ar
    22    19    17   ar
    23    15    16   ar
    24    24    23   ar
    25    22    23   ar
    26    17    16   ar
    27    16    18    1
    28    23    25    1
