@<TRIPOS>MOLECULE
ZINC37129446_replica-1.pdb
 19 19 0 0 0
SMALL
GASTEIGER

@<TRIPOS>ATOM
      1  C8        -0.4100   27.6810   53.8700 C.ar    0  <0>0        0.0590
      2  C9        -0.1770   26.4660   53.2430 C.ar    0  <0>0        0.0269
      3  C10       -0.7170   26.2190   51.9930 C.ar    0  <0>0        0.0590
      4  C11       -1.4890   27.1810   51.3660 C.ar    0  <0>0        0.0127
      5  C12       -1.7240   28.3960   51.9850 C.ar    0  <0>0        0.0166
      6  C13       -1.1920   28.6490   53.2400 C.ar    0  <0>0        0.0613
      7 Cl         -0.4250   24.6980   51.2090 Cl      0  <0>0       -0.0822
      8  N1         0.1350   27.9330   55.1350 N.pl3   0  <0>0       -0.3331
      9  H16        0.9230   28.4920   55.2210 H       0  <0>0        0.1468
     10  C4        -0.4870   27.3550   56.3290 C.3     0  <0>0        0.0691
     11  C3         0.1870   26.0220   56.6590 C.3     0  <0>0        0.0195
     12  C2        -0.2440   25.5640   58.0540 C.3     0  <0>0        0.0017
     13  C1        -0.5420   24.0630   58.0290 C.3     0  <0>0        0.0001
     14  C5        -0.3190   28.3160   57.5070 C.3     0  <0>0        0.0195
     15  C6        -1.6650   28.9700   57.8280 C.3     0  <0>0        0.0017
     16  C7        -2.7850   28.2040   57.1210 C.3     0  <0>0        0.0001
     17  N2        -1.4350   29.8760   53.8710 N.pl3   0  <0>0       -0.3031
     18  C14       -2.8110   30.3280   54.0870 C.3     0  <0>0        0.1123
     19  C15       -0.3120   30.7060   54.3150 C.3     0  <0>0        0.1123
@<TRIPOS>BOND
     1     7     3    1
     2     4     5   ar
     3     4     3   ar
     4     5     6   ar
     5     3     2   ar
     6     6     1   ar
     7     6    17    1
     8     2     1   ar
     9     1     8    1
    10    17    18    1
    11    17    19    1
    12     8     9    1
    13     8    10    1
    14    10    11    1
    15    10    14    1
    16    11    12    1
    17    16    15    1
    18    14    15    1
    19    13    12    1
