@<TRIPOS>MOLECULE
ZINC45170349_replica-1.pdb
 21 22 0 0 0
SMALL
GASTEIGER

@<TRIPOS>ATOM
      1  N1        -0.3190   28.3700   55.2680 N.pl3   0  <0>0       -0.3308
      2  H13        0.4140   28.0610   55.8230 H       0  <0>0        0.1471
      3  C9        -0.5500   27.7780   54.0240 C.ar    0  <0>0        0.0408
      4  C4        -0.1170   26.4820   53.7790 C.ar    0  <0>0       -0.0091
      5  C5        -0.3520   25.8970   52.5500 C.ar    0  <0>0       -0.0031
      6  C6        -1.0110   26.6040   51.5620 C.ar    0  <0>0       -0.0002
      7  C7        -1.4390   27.8980   51.8000 C.ar    0  <0>0        0.0012
      8  C8        -1.2070   28.4880   53.0270 C.ar    0  <0>0        0.0140
      9  C3         0.6020   25.7100   54.8550 C.3     0  <0>0        0.0276
     10  C2         0.6100   24.2220   54.4990 C.3     0  <0>0        0.0047
     11  C1         0.5920   23.3900   55.7830 C.3     0  <0>0        0.0004
     12  C10       -1.1830   29.4560   55.7350 C.3     0  <0>0        0.0942
     13  C11       -2.6090   28.9330   55.9160 C.3     0  <0>0        0.0262
     14  C12       -0.6680   29.9780   57.0510 C.ar    0  <0>0        0.0239
     15  C14       -0.0930   31.1850   57.2600 C.ar    0  <0>0        0.0547
     16  N3         0.2240   31.2690   58.5680 N.ar    0  <0>0       -0.2534
     17  C15        0.1450   32.2480   56.2170 C.3     0  <0>0        0.0515
     18  N2        -0.1600   30.0710   59.1830 N.ar    0  <0>0       -0.1742
     19  C16        0.8630   32.4100   59.2280 C.3     0  <0>0        0.1533
     20  C13       -0.6940   29.2970   58.2730 C.ar    0  <0>0        0.0776
     21  C17       -1.2440   27.9130   58.5010 C.3     0  <0>0        0.0537
@<TRIPOS>BOND
     1     6     7   ar
     2     6     5   ar
     3     7     8   ar
     4     5     4   ar
     5     8     3   ar
     6     4     3   ar
     7     4     9    1
     8     3     1    1
     9    10     9    1
    10    10    11    1
    11     1    12    1
    12     1     2    1
    13    12    13    1
    14    12    14    1
    15    17    15    1
    16    14    15   ar
    17    14    20   ar
    18    15    16   ar
    19    20    21    1
    20    20    18   ar
    21    16    18   ar
    22    16    19    1
