@<TRIPOS>MOLECULE
ZINC50005899_replica-1.pdb
 22 23 0 0 0
SMALL
GASTEIGER

@<TRIPOS>ATOM
      1  C4        -0.3770   31.1490   56.8900 C.ar    0  <0>0       -0.0414
      2  C5         0.1430   31.5560   55.6750 C.ar    0  <0>0       -0.0049
      3  C6        -0.4030   31.0900   54.4960 C.ar    0  <0>0        0.0167
      4  C7        -1.4760   30.2100   54.5300 C.ar    0  <0>0        0.0794
      5  C8        -1.9990   29.8020   55.7520 C.ar    0  <0>0        0.1532
      6  C9        -1.4430   30.2680   56.9290 C.ar    0  <0>0        0.0246
      7  F1        -3.0430   28.9450   55.7900 F       0  <0>0       -0.2029
      8  N2        -2.0330   29.7370   53.3360 N.pl3   0  <0>0       -0.2833
      9  C10       -3.0500   30.5270   52.6390 C.3     0  <0>0        0.1173
     10  C11       -1.6170   28.5130   52.8090 C.ar    0  <0>0        0.0516
     11  C16       -0.7610   27.6960   53.5380 C.ar    0  <0>0        0.0145
     12  C15       -0.3560   26.4840   53.0160 C.ar    0  <0>0       -0.0030
     13  C14       -0.7920   26.0860   51.7660 C.ar    0  <0>0       -0.0218
     14  C13       -1.6390   26.8990   51.0360 C.ar    0  <0>0       -0.0030
     15  C17       -0.3430   24.7640   51.1970 C.3     0  <0>0        0.0310
     16  C12       -2.0540   28.1100   51.5530 C.ar    0  <0>0        0.0145
     17  C3         0.2230   31.6600   58.1750 C.3     0  <0>0       -0.0542
     18  N1         0.3930   33.1170   58.0910 N.4     0  <0>0        0.3864
     19  H6        -0.4920   33.5690   58.2690 H       0  <0>0       -0.0840
     20  H22        0.7180   33.3650   57.1690 H       0  <0>0       -0.0840
     21  C2         1.3750   33.5530   59.0920 C.3     0  <0>0       -0.0814
     22  C1         0.7060   34.5170   60.0750 C.3     0  <0>0       -0.0255
@<TRIPOS>BOND
     1    14    16   ar
     2    14    13   ar
     3    15    13    1
     4    16    10   ar
     5    13    12   ar
     6     9     8    1
     7    10     8    1
     8    10    11   ar
     9    12    11   ar
    10     8     4    1
    11     3     4   ar
    12     3     2   ar
    13     4     5   ar
    14     2     1   ar
    15     5     7    1
    16     5     6   ar
    17     1     6   ar
    18     1    17    1
    19    20    18    1
    20    18    17    1
    21    18    19    1
    22    18    21    1
    23    21    22    1
