@<TRIPOS>MOLECULE
ZINC13566869_replica-1.pdb
 24 25 0 0 0
SMALL
GASTEIGER

@<TRIPOS>ATOM
      1  C1         8.8160   35.8810   59.3430 C.3     0  <0>0        0.0025
      2  C2         7.9480   37.0790   58.9630 C.3     0  <0>0        0.0271
      3  C3         7.0600   37.4690   60.1430 C.3     0  <0>0        0.0024
      4  C4         5.9110   36.4830   60.3180 C.3     0  <0>0        0.0001
      5  C5         5.0640   36.4630   59.0470 C.3     0  <0>0        0.0003
      6  C6         5.9040   35.9730   57.8650 C.3     0  <0>0        0.0035
      7  C7         7.1470   36.8350   57.7000 C.3     0  <0>0        0.0029
      8  C8         8.0280   36.3090   56.5660 C.3     0  <0>0        0.0044
      9  C9         7.2620   36.4490   55.2420 C.3     0  <0>0        0.0220
     10  C10        5.9170   35.7770   55.3900 C.2     0  <0>0       -0.0446
     11  C11        5.5000   34.9180   54.4890 C.2     0  <0>0       -0.0091
     12  C12        5.0550   36.1140   56.5840 C.3     0  <0>0        0.0184
     13  C19        6.2350   34.4920   58.0510 C.3     0  <0>0        0.0003
     14  C13        3.8750   35.1420   56.6410 C.3     0  <0>0        0.0068
     15  C14        2.5660   35.9190   56.4850 C.3     0  <0>0        0.0315
     16  C15        1.3930   35.0340   56.9130 C.3     0  <0>0        0.1068
     17  C16        1.7880   33.5630   56.7740 C.3     0  <0>0        0.0339
     18  C17        1.0430   35.3260   58.3500 C.2     0  <0>0       -0.0001
     19  C18        1.3330   34.4540   59.2850 C.2     0  <0>0       -0.0025
     20  O1         0.2630   35.3050   56.0820 O.3     0  <0>0       -0.3827
     21  H28        0.2580   34.8080   55.2530 H       0  <0>0        0.2107
     22  C20        8.8980   38.2740   58.7140 C.3     0  <0>0        0.1370
     23  O2         8.1370   39.4080   58.2930 O.3     0  <0>0       -0.3820
     24  H34        7.2090   39.3830   58.5640 H       0  <0>0        0.2104
@<TRIPOS>BOND
     1    11    10    2
     2     9    10    1
     3     9     8    1
     4    21    20    1
     5    10    12    1
     6    20    16    1
     7    15    14    1
     8    15    16    1
     9     8     7    1
    10    12    14    1
    11    12     6    1
    12    17    16    1
    13    16    18    1
    14     7     6    1
    15     7     2    1
    16     6    13    1
    17     6     5    1
    18    23    24    1
    19    23    22    1
    20    18    19    2
    21    22     2    1
    22     2     1    1
    23     2     3    1
    24     5     4    1
    25     3     4    1
