@<TRIPOS>MOLECULE
ZINC59116649_replica-1.pdb
 25 27 0 0 0
SMALL
GASTEIGER

@<TRIPOS>ATOM
      1  C7         7.6230   37.7920   58.8360 C.3     0  <0>0        0.1724
      2  C8         7.7390   38.2740   57.4930 C.1     0  <0>0        0.0818
      3  N1         7.8310   38.6580   56.4270 N.1     0  <0>0       -0.1954
      4  C6         8.6770   37.9490   59.7240 C.3     0  <0>0        0.0573
      5  C5         9.4420   36.8340   60.1090 C.ar    0  <0>0        0.0085
      6  C4         9.6820   35.6470   59.4140 C.ar    0  <0>0        0.0024
      7  C3        10.4800   34.7360   60.0560 C.ar    0  <0>0        0.0023
      8  C2        10.9700   35.0360   61.2860 C.ar    0  <0>0        0.0073
      9  C1        11.8570   34.1870   62.1610 C.3     0  <0>0        0.0381
     10  S1        10.3580   36.5650   61.6150 S.2     0  <0>0       -0.0956
     11  C9         6.3870   37.1310   59.2740 C.2     0  <0>0        0.2407
     12  O1         5.8460   37.4760   60.3080 O.2     0  <0>0       -0.2736
     13  N2         5.8530   36.1420   58.5300 N.am    0  <0>0       -0.2776
     14  H7         6.2850   35.8660   57.7070 H       0  <0>0        0.1554
     15  C10        4.6860   35.5170   58.9450 C.ar    0  <0>0        0.0898
     16  S2         3.1030   35.9370   58.5760 S.2     0  <0>0       -0.0762
     17  C13        2.2410   34.6740   59.4650 C.ar    0  <0>0        0.0052
     18  C12        3.2130   33.9410   60.0490 C.ar    0  <0>0       -0.0088
     19  C14        0.7630   34.4520   59.5660 C.3     0  <0>0        0.0327
     20  C11        4.5590   34.4050   59.7620 C.ar    0  <0>0        0.0843
     21  C17        2.8820   32.7420   60.9250 C.3     0  <0>0        0.0273
     22  C18        5.7080   33.7410   60.3000 C.1     0  <0>0        0.1019
     23  N3         6.6190   33.2150   60.7280 N.1     0  <0>0       -0.1908
     24  C16        1.4170   32.8380   61.3540 C.3     0  <0>0        0.0051
     25  C15        0.5260   33.0410   60.1260 C.3     0  <0>0        0.0055
@<TRIPOS>BOND
     1     3     2    3
     2     2     1    1
     3    14    13    1
     4    13    15    1
     5    13    11   am
     6    16    15   ar
     7    16    17   ar
     8     1    11    1
     9     1     4    1
    10    15    20   ar
    11    11    12    2
    12     6     7   ar
    13     6     5   ar
    14    17    19    1
    15    17    18   ar
    16    19    25    1
    17     4     5    1
    18    20    18   ar
    19    20    22    1
    20    18    21    1
    21     7     8   ar
    22     5    10   ar
    23    25    24    1
    24    22    23    3
    25    21    24    1
    26     8    10   ar
    27     8     9    1
