@<TRIPOS>MOLECULE
ZINC21529547_replica-1.pdb
 24 26 0 0 0
SMALL
GASTEIGER

@<TRIPOS>ATOM
      1  C9         6.0910   36.2010   57.8450 C.2     0  <0>0        0.0692
      2  C10        6.0620   36.2820   56.5070 C.2     0  <0>0        0.0574
      3  C11        7.4080   36.6030   56.0100 C.2     0  <0>0        0.3372
      4  O2         7.7040   36.7470   54.8410 O.2     0  <0>0       -0.2453
      5  O3         8.2630   36.7090   57.0400 O.3     0  <0>0       -0.4486
      6  C12        7.5200   36.4690   58.2770 C.3     0  <0>0        0.1589
      7  C13        8.0720   35.1650   58.9010 C.3     0  <0>0        0.0446
      8  C14        9.5730   35.1880   58.8330 C.3     0  <0>0        0.0039
      9  C15       10.2200   35.7360   60.1220 C.3     0  <0>0        0.0001
     10  C16        9.4820   36.9660   60.6840 C.3     0  <0>0        0.0001
     11  C17        9.0640   37.9220   59.5990 C.3     0  <0>0        0.0039
     12  C18        7.6140   37.5970   59.1980 C.3     0  <0>0        0.0446
     13  C19        4.8400   36.0790   55.6470 C.3     0  <0>0        0.0378
     14  C8         4.9480   35.9000   58.7310 C.2     0  <0>0        0.2450
     15  N1         4.3440   34.6980   58.6650 N.am    0  <0>0       -0.3027
     16  H14        4.7020   33.9400   57.9510 H       0  <0>0        0.1497
     17  O1         4.5530   36.7360   59.5180 O.2     0  <0>0       -0.2704
     18  C5         3.2110   34.3980   59.5430 C.3     0  <0>0        0.0718
     19  C4         1.9160   34.8880   58.8910 C.3     0  <0>0        0.0196
     20  C3         1.7210   34.1790   57.5490 C.3     0  <0>0        0.0017
     21  C2         1.6380   32.6680   57.7780 C.3     0  <0>0        0.0001
     22  C1         1.4430   31.9600   56.4360 C.3     0  <0>0        0.0000
     23  C7         2.9320   32.1790   58.4300 C.3     0  <0>0        0.0017
     24  C6         3.1270   32.8870   59.7720 C.3     0  <0>0        0.0196
@<TRIPOS>BOND
     1     4     3    2
     2    13     2    1
     3     3     2    1
     4     3     5    1
     5    22    21    1
     6     2     1    2
     7     5     6    1
     8    20    21    1
     9    20    19    1
    10    21    23    1
    11     1     6    1
    12     1    14    1
    13    16    15    1
    14     6     7    1
    15     6    12    1
    16    23    24    1
    17    15    14   am
    18    15    18    1
    19    14    17    2
    20     8     7    1
    21     8     9    1
    22    19    18    1
    23    12    11    1
    24    18    24    1
    25    11    10    1
    26     9    10    1
