@<TRIPOS>MOLECULE
ZINC43535261_replica-1.pdb
 21 22 0 0 0
SMALL
GASTEIGER

@<TRIPOS>ATOM
      1  C8         5.9260   35.4480   55.8370 C.3     0  <0>0        0.1623
      2  C18        5.4040   34.9490   54.5540 C.1     0  <0>0        0.0923
      3  N2         5.0010   34.5660   53.5640 N.1     0  <0>0       -0.1942
      4  N1         5.2550   34.7540   56.9390 N.pl3   0  <0>0       -0.3227
      5  H10        4.6500   34.0180   56.7530 H       0  <0>0        0.1477
      6  C7         5.4880   35.1490   58.2580 C.ar    0  <0>0        0.0413
      7  C2         6.0680   34.2650   59.1580 C.ar    0  <0>0       -0.0087
      8  C1         6.4480   32.8770   58.7130 C.3     0  <0>0        0.0323
      9  C3         6.3010   34.6610   60.4610 C.ar    0  <0>0       -0.0030
     10  C4         5.9520   35.9350   60.8710 C.ar    0  <0>0       -0.0002
     11  C5         5.3690   36.8160   59.9780 C.ar    0  <0>0        0.0012
     12  C6         5.1330   36.4260   58.6750 C.ar    0  <0>0        0.0140
     13  C9         7.4310   35.1870   55.9110 C.3     0  <0>0        0.0396
     14  C10        8.1670   36.5070   56.1550 C.3     0  <0>0        0.0251
     15  C11        7.2070   37.6760   55.9280 C.3     0  <0>0        0.0048
     16  C12        8.6750   36.5420   57.5740 C.ar    0  <0>0       -0.0224
     17  C17        9.2530   35.4160   58.1300 C.ar    0  <0>0       -0.0043
     18  C16        9.7240   35.4500   59.4280 C.ar    0  <0>0       -0.0003
     19  C15        9.6080   36.6070   60.1750 C.ar    0  <0>0       -0.0000
     20  C14        9.0270   37.7320   59.6220 C.ar    0  <0>0       -0.0003
     21  C13        8.5600   37.6990   58.3210 C.ar    0  <0>0       -0.0043
@<TRIPOS>BOND
     1     3     2    3
     2     2     1    1
     3     1    13    1
     4     1     4    1
     5    13    14    1
     6    15    14    1
     7    14    16    1
     8     5     4    1
     9     4     6    1
    10    16    17   ar
    11    16    21   ar
    12    17    18   ar
    13     6    12   ar
    14     6     7   ar
    15    21    20   ar
    16    12    11   ar
    17     8     7    1
    18     7     9   ar
    19    18    19   ar
    20    20    19   ar
    21    11    10   ar
    22     9    10   ar
