@<TRIPOS>MOLECULE
ZINC37106099_replica-1.pdb
 21 22 0 0 0
SMALL
GASTEIGER

@<TRIPOS>ATOM
      1  C9        10.8780   35.6330   61.1830 C.ar    0  <0>0        0.0448
      2  C10       10.1970   36.8230   61.3970 C.ar    0  <0>0        0.0174
      3  C11        9.2480   37.2490   60.4870 C.ar    0  <0>0        0.0382
      4  C12        8.9770   36.4880   59.3600 C.ar    0  <0>0        0.1388
      5  C13        9.6580   35.2990   59.1460 C.ar    0  <0>0        0.0382
      6  C14       10.6100   34.8730   60.0510 C.ar    0  <0>0        0.0174
      7  N1        11.8400   35.2010   62.1040 N.pl3   0  <0>0       -0.3340
      8  H16       12.2640   35.8390   62.6990 H       0  <0>0        0.1468
      9  C6        12.2080   33.7850   62.1680 C.3     0  <0>0        0.0690
     10  C5        13.4020   33.6100   63.1100 C.3     0  <0>0        0.0195
     11  C4        13.7850   32.1300   63.1770 C.3     0  <0>0        0.0017
     12  C3        12.5990   31.3190   63.7020 C.3     0  <0>0        0.0001
     13  C8        11.4050   31.4940   62.7610 C.3     0  <0>0        0.0017
     14  C7        11.0220   32.9730   62.6920 C.3     0  <0>0        0.0195
     15  C2        12.9830   29.8390   63.7690 C.3     0  <0>0        0.0000
     16  C1        12.1570   29.1470   64.8560 C.3     0  <0>0        0.0000
     17  O1         8.0430   36.9080   58.4660 O.3     0  <0>0       -0.4727
     18  C15        7.9970   38.3090   58.1850 C.3     0  <0>0        0.2373
     19  C16        8.4210   38.5530   56.7360 C.3     0  <0>0        0.1894
     20  O2         7.3420   38.2180   55.8600 O.3     0  <0>0       -0.3471
     21  C17        7.5200   36.9820   55.1650 C.3     0  <0>0        0.1743
@<TRIPOS>BOND
     1    21    20    1
     2    20    19    1
     3    19    18    1
     4    18    17    1
     5    17     4    1
     6     5     4   ar
     7     5     6   ar
     8     4     3   ar
     9     6     1   ar
    10     3     2   ar
    11     1     2   ar
    12     1     7    1
    13     7     9    1
    14     7     8    1
    15     9    14    1
    16     9    10    1
    17    14    13    1
    18    13    12    1
    19    10    11    1
    20    11    12    1
    21    12    15    1
    22    15    16    1
