@<TRIPOS>MOLECULE
ZINC11140053_replica-1.pdb
 28 31 0 0 0
SMALL
GASTEIGER

@<TRIPOS>ATOM
      1  C9         5.4400   34.6460   59.8360 C.2     0  <0>0        0.2546
      2  O1         5.4290   34.6740   61.0520 O.2     0  <0>0       -0.2695
      3  N1         6.6050   34.5010   59.1760 N.am    0  <0>0       -0.2230
      4  C10        6.6350   34.5850   57.7130 C.3     0  <0>0        0.1308
      5  C11        7.2520   35.9200   57.2910 C.3     0  <0>0        0.1355
      6  O2         6.2450   36.7600   56.7040 O.3     0  <0>0       -0.3545
      7  C14        6.8910   37.5310   55.6680 C.3     0  <0>0        0.1422
      8  C13        7.8510   36.5120   55.0040 C.3     0  <0>0        0.0346
      9  C12        8.3320   35.6810   56.2190 C.3     0  <0>0        0.0339
     10  C15        7.7770   34.2720   59.8790 C.2     0  <0>0        0.2169
     11  S1         8.4710   32.7200   60.4270 S.3     0  <0>0       -0.0557
     12  C21        9.9220   33.3860   61.2070 C.3     0  <0>0        0.1340
     13  C16        9.7660   34.7750   60.9950 C.2     0  <0>0        0.1527
     14  C20       10.9950   32.8540   61.8780 C.2     0  <0>0        0.0216
     15  N2         8.6570   35.1430   60.3170 N.2     0  <0>0       -0.3814
     16  C17       10.7860   35.6060   61.5190 C.2     0  <0>0        0.1688
     17  C18       11.8550   35.0670   62.1890 C.2     0  <0>0        0.0613
     18  F2        10.7050   36.9450   61.3580 F       0  <0>0       -0.2017
     19  C19       11.9750   33.6950   62.3780 C.2     0  <0>0        0.1395
     20  F1        13.0380   33.1870   63.0400 F       0  <0>0       -0.2044
     21  C5         4.1740   34.7730   59.0840 C.ar    0  <0>0        0.0500
     22  C4         3.6880   36.0350   58.7360 C.ar    0  <0>0        0.0039
     23  C3         2.5030   36.1460   58.0390 C.ar    0  <0>0       -0.0041
     24  C2         1.8030   35.0110   57.6740 C.ar    0  <0>0       -0.0222
     25  C1         0.5110   35.1400   56.9070 C.3     0  <0>0        0.0310
     26  C7         2.2810   33.7570   58.0110 C.ar    0  <0>0       -0.0084
     27  C6         3.4610   33.6320   58.7130 C.ar    0  <0>0       -0.0178
     28  C8         3.9810   32.2650   59.0790 C.3     0  <0>0        0.0312
@<TRIPOS>BOND
     1     8     7    1
     2     8     9    1
     3     7     6    1
     4     9     5    1
     5     6     5    1
     6    25    24    1
     7     5     4    1
     8    24    26   ar
     9    24    23   ar
    10     4     3    1
    11    26    27   ar
    12    23    22   ar
    13    27    28    1
    14    27    21   ar
    15    22    21   ar
    16    21     1    1
    17     3     1   am
    18     3    10    1
    19     1     2    2
    20    10    15    2
    21    10    11    1
    22    15    13    2
    23    11    12    1
    24    13    12    1
    25    13    16    1
    26    12    14    1
    27    18    16    1
    28    16    17    2
    29    14    19    2
    30    17    19    1
    31    19    20    1
