@<TRIPOS>MOLECULE
ZINC37198416_replica-1.pdb
 22 24 0 0 0
SMALL
GASTEIGER

@<TRIPOS>ATOM
      1  C8        -0.8950   28.7810   55.3650 C.3     0  <0>0        0.0918
      2  C5        -1.2470   27.9150   56.5460 C.ar    0  <0>0       -0.0044
      3  C4        -0.3490   26.9650   56.9980 C.ar    0  <0>0        0.0004
      4  C3        -0.6690   26.1690   58.0810 C.ar    0  <0>0        0.0366
      5  C2        -1.8930   26.3240   58.7160 C.ar    0  <0>0        0.1387
      6  C7        -2.7940   27.2740   58.2570 C.ar    0  <0>0        0.0366
      7  C6        -2.4660   28.0710   57.1780 C.ar    0  <0>0        0.0004
      8  O1        -2.2100   25.5430   59.7820 O.3     0  <0>0       -0.4714
      9  C1        -2.0910   24.1300   59.6100 C.3     0  <0>0        0.2525
     10  C9        -0.2870   30.0960   55.8590 C.3     0  <0>0        0.0221
     11  C11       -0.4260   31.3220   54.9540 C.3     0  <0>0        0.0020
     12  C10       -1.2510   31.2210   56.2390 C.3     0  <0>0        0.0020
     13  N1         0.0750   28.0820   54.5190 N.pl3   0  <0>0       -0.3288
     14  H14        1.0220   28.1270   54.7260 H       0  <0>0        0.1471
     15  C12       -0.3640   27.3500   53.4110 C.ar    0  <0>0        0.0749
     16  C17       -0.0520   25.9980   53.3010 C.ar    0  <0>0        0.1533
     17  C16       -0.4920   25.2760   52.2070 C.ar    0  <0>0        0.0332
     18  F1         0.6740   25.3910   54.2640 F       0  <0>0       -0.2029
     19  C15       -1.2310   25.8980   51.2170 C.ar    0  <0>0        0.0320
     20  C14       -1.5380   27.2440   51.3220 C.ar    0  <0>0        0.1415
     21  C13       -1.1060   27.9720   52.4160 C.ar    0  <0>0        0.0462
     22  F2        -2.2610   27.8480   50.3530 F       0  <0>0       -0.2041
@<TRIPOS>BOND
     1    22    20    1
     2    19    20   ar
     3    19    17   ar
     4    20    21   ar
     5    17    16   ar
     6    21    15   ar
     7    16    15   ar
     8    16    18    1
     9    15    13    1
    10    13    14    1
    11    13     1    1
    12    11    10    1
    13    11    12    1
    14     1    10    1
    15     1     2    1
    16    10    12    1
    17     2     3   ar
    18     2     7   ar
    19     3     4   ar
    20     7     6   ar
    21     4     5   ar
    22     6     5   ar
    23     5     8    1
    24     9     8    1
