@<TRIPOS>MOLECULE
ZINC51579485_replica-1.pdb
 22 23 0 0 0
SMALL
GASTEIGER

@<TRIPOS>ATOM
      1  C11       -0.6450   27.8460   53.5850 C.ar    0  <0>0        0.0541
      2  C12       -0.3140   26.5850   53.1070 C.ar    0  <0>0        0.0107
      3  C13       -0.7970   26.1600   51.8860 C.ar    0  <0>0       -0.0206
      4  C14       -1.6140   26.9840   51.1290 C.ar    0  <0>0       -0.0035
      5  C15       -1.9540   28.2390   51.5870 C.ar    0  <0>0        0.0112
      6  C16       -1.4770   28.6810   52.8240 C.ar    0  <0>0        0.0815
      7  C17       -1.8310   29.9810   53.3090 C.1     0  <0>0        0.1017
      8  N2        -2.1120   31.0130   53.6940 N.1     0  <0>0       -0.1908
      9  C18       -0.4340   24.7900   51.3730 C.3     0  <0>0        0.0311
     10  N1        -0.1590   28.2770   54.8150 N.pl3   0  <0>0       -0.3305
     11  H14        0.6520   28.8060   54.8570 H       0  <0>0        0.1469
     12  C9        -0.8740   27.9320   56.0470 C.3     0  <0>0        0.1134
     13  C10       -1.1500   29.2050   56.8500 C.3     0  <0>0        0.0251
     14  C8        -0.0190   26.9780   56.8820 C.3     0  <0>0        0.2246
     15  O1         0.5610   25.9880   56.0290 O.3     0  <0>0       -0.4737
     16  C5         0.3410   24.6870   56.3550 C.ar    0  <0>0        0.1386
     17  C4         0.6720   23.6810   55.4590 C.ar    0  <0>0        0.0366
     18  C3         0.4470   22.3600   55.7920 C.ar    0  <0>0       -0.0011
     19  C2        -0.1070   22.0390   57.0180 C.ar    0  <0>0       -0.0217
     20  C1        -0.3510   20.5960   57.3790 C.3     0  <0>0        0.0310
     21  C7        -0.4430   23.0410   57.9100 C.ar    0  <0>0       -0.0011
     22  C6        -0.2150   24.3630   57.5830 C.ar    0  <0>0        0.0366
@<TRIPOS>BOND
     1     4     5   ar
     2     4     3   ar
     3     9     3    1
     4     5     6   ar
     5     3     2   ar
     6     6     7    1
     7     6     1   ar
     8     2     1   ar
     9     7     8    3
    10     1    10    1
    11    10    11    1
    12    10    12    1
    13    17    18   ar
    14    17    16   ar
    15    18    19   ar
    16    15    16    1
    17    15    14    1
    18    12    13    1
    19    12    14    1
    20    16    22   ar
    21    19    20    1
    22    19    21   ar
    23    22    21   ar
