@<TRIPOS>MOLECULE
ZINC55004247_replica-1.pdb
 20 21 0 0 0
SMALL
GASTEIGER

@<TRIPOS>ATOM
      1  C4         4.9190   35.3280   57.6490 C.2     0  <0>0        0.1014
      2  C5         4.8890   35.0750   56.3180 C.3     0  <0>0        0.1326
      3  S1         6.4420   35.7930   55.8080 S.3     0  <0>0       -0.0582
      4  C6         6.9580   36.3290   57.3170 C.2     0  <0>0        0.2140
      5  N1         5.9770   35.9670   58.1160 N.2     0  <0>0       -0.3883
      6  N2         8.1300   36.9970   57.6400 N.pl3   0  <0>0       -0.2540
      7  C7         8.5640   38.1450   56.8420 C.3     0  <0>0        0.1203
      8  C8         8.8990   36.5720   58.7290 C.ar    0  <0>0        0.0816
      9  C13        9.0090   37.3740   59.8610 C.ar    0  <0>0        0.1537
     10  C12        9.7650   36.9470   60.9360 C.ar    0  <0>0        0.0309
     11  F1         8.3720   38.5640   59.9090 F       0  <0>0       -0.2029
     12  C11       10.4200   35.7310   60.8840 C.ar    0  <0>0        0.0024
     13  C10       10.3170   34.9350   59.7590 C.ar    0  <0>0        0.0014
     14  C9         9.5580   35.3510   58.6820 C.ar    0  <0>0        0.0172
     15  C14        3.8350   34.3800   55.4960 C.3     0  <0>0        0.1551
     16  O1         2.7630   35.2860   55.2310 O.3     0  <0>0       -0.3806
     17  H17        1.8870   34.8760   55.2470 H       0  <0>0        0.2105
     18  C3         3.7930   34.9040   58.5570 C.3     0  <0>0        0.0555
     19  C2         2.7650   36.0330   58.6560 C.3     0  <0>0        0.0071
     20  C1         1.3790   35.4400   58.9150 C.3     0  <0>0        0.0004
@<TRIPOS>BOND
     1    16    17    1
     2    16    15    1
     3    15     2    1
     4     3     2    1
     5     3     4    1
     6     2     1    1
     7     7     6    1
     8     4     6    1
     9     4     5    2
    10     6     8    1
    11     1     5    2
    12     1    18    1
    13    18    19    1
    14    19    20    1
    15    14     8   ar
    16    14    13   ar
    17     8     9   ar
    18    13    12   ar
    19     9    11    1
    20     9    10   ar
    21    12    10   ar
