@<TRIPOS>MOLECULE
ZINC37392390_replica-1.pdb
 21 21 0 0 0
SMALL
GASTEIGER

@<TRIPOS>ATOM
      1  C7         8.4140   37.1980   57.1430 C.3     0  <0>0        0.1466
      2  C8         8.4560   38.7280   57.1240 C.3     0  <0>0        0.0311
      3  C6         7.4360   36.7100   56.1070 C.2     0  <0>0        0.2402
      4  N1         6.2640   36.1660   56.4900 N.am    0  <0>0       -0.3046
      5  H13        6.0500   36.0890   57.4340 H       0  <0>0        0.1494
      6  O1         7.7030   36.8050   54.9280 O.2     0  <0>0       -0.2733
      7  C4         5.3120   35.6910   55.4830 C.3     0  <0>0        0.0717
      8  C5         3.9760   36.4140   55.6630 C.3     0  <0>0        0.0213
      9  C3         5.1020   34.1840   55.6490 C.3     0  <0>0        0.0196
     10  C2         3.6130   33.8590   55.5160 C.3     0  <0>0        0.0017
     11  C1         3.2260   32.8080   56.5580 C.3     0  <0>0        0.0001
     12  N2         7.9910   36.7380   58.4680 N.pl3   0  <0>0       -0.3263
     13  H17        7.0510   36.7390   58.7050 H       0  <0>0        0.1472
     14  C9         8.9440   36.2980   59.3930 C.ar    0  <0>0        0.0556
     15  C14        9.4230   34.9940   59.3320 C.ar    0  <0>0        0.0712
     16  C13       10.3680   34.5650   60.2440 C.ar    0  <0>0        0.0193
     17 Cl          8.8370   33.9090   58.1090 Cl      0  <0>0       -0.0809
     18  C12       10.8300   35.4270   61.2220 C.ar    0  <0>0        0.0355
     19  C11       10.3510   36.7230   61.2870 C.ar    0  <0>0        0.0080
     20 Br         12.1180   34.8320   62.4730 Br      0  <0>0       -0.0490
     21  C10        9.4100   37.1610   60.3760 C.ar    0  <0>0        0.0157
@<TRIPOS>BOND
     1     6     3    2
     2     7     9    1
     3     7     8    1
     4     7     4    1
     5    10     9    1
     6    10    11    1
     7     3     4   am
     8     3     1    1
     9     4     5    1
    10     2     1    1
    11     1    12    1
    12    17    15    1
    13    12    13    1
    14    12    14    1
    15    15    14   ar
    16    15    16   ar
    17    14    21   ar
    18    16    18   ar
    19    21    19   ar
    20    18    19   ar
    21    18    20    1
