@<TRIPOS>MOLECULE
ZINC57476071_replica-1.pdb
 19 20 0 0 0
SMALL
GASTEIGER

@<TRIPOS>ATOM
      1  C6         0.1150   28.4520   55.1580 C.ar    0  <0>0        0.1394
      2  C7         0.6500   27.1770   55.3670 C.ar    0  <0>0        0.0369
      3  C8         0.4700   26.1850   54.4550 C.ar    0  <0>0        0.0031
      4  C9        -0.2650   26.4390   53.2840 C.ar    0  <0>0        0.0002
      5  C10       -0.4710   25.4360   52.3210 C.ar    0  <0>0        0.0000
      6  C11       -1.1880   25.7180   51.1990 C.ar    0  <0>0        0.0000
      7  C12       -1.7230   26.9870   50.9880 C.ar    0  <0>0        0.0000
      8  C13       -1.5440   27.9830   51.8980 C.ar    0  <0>0        0.0001
      9  C14       -0.8090   27.7310   53.0690 C.ar    0  <0>0        0.0030
     10  C15       -0.6090   28.7320   54.0340 C.ar    0  <0>0        0.0369
     11  O3         0.3120   29.4230   56.0880 O.3     0  <0>0       -0.4638
     12  C5         0.2240   30.7770   55.6390 C.3     0  <0>0        0.3141
     13  C4        -0.7940   31.5160   56.4700 C.2     0  <0>0        0.3624
     14  O2        -1.9670   31.2450   56.3690 O.2     0  <0>0       -0.2459
     15  O1        -0.3980   32.4740   57.3210 O.3     0  <0>0       -0.4400
     16  C3         0.6260   33.3630   56.8680 C.3     0  <0>0        0.2464
     17  C2         0.9010   34.3970   57.9300 C.2     0  <0>0        0.0790
     18  C1         0.5450   34.1720   59.1720 C.2     0  <0>0        0.0114
     19 Cl          1.6890   35.8840   57.5090 Cl      0  <0>0       -0.0831
@<TRIPOS>BOND
     1     7     6   ar
     2     7     8   ar
     3     6     5   ar
     4     8     9   ar
     5     5     4   ar
     6     9     4   ar
     7     9    10   ar
     8     4     3   ar
     9    10     1   ar
    10     3     2   ar
    11     1     2   ar
    12     1    11    1
    13    12    11    1
    14    12    13    1
    15    14    13    2
    16    13    15    1
    17    16    15    1
    18    16    17    1
    19    19    17    1
    20    17    18    2
