@<TRIPOS>MOLECULE
ZINC61955036_replica-1.pdb
 20 21 0 0 0
SMALL
GASTEIGER

@<TRIPOS>ATOM
      1  C2        -0.6910   30.2330   56.4270 C.ar    0  <0>0        0.0542
      2  C3        -0.5180   31.6050   56.2660 C.ar    0  <0>0        0.0156
      3  C4        -0.0260   32.3640   57.3040 C.ar    0  <0>0        0.0116
      4  C5         0.3000   31.7560   58.5190 C.ar    0  <0>0        0.0685
      5  C6         0.1260   30.3780   58.6770 C.ar    0  <0>0        0.0116
      6  C7        -0.3720   29.6260   57.6370 C.ar    0  <0>0        0.0156
      7  C8         0.8140   32.5430   59.6000 C.1     0  <0>0        0.1004
      8  N2         1.2220   33.1670   60.4570 N.1     0  <0>0       -0.1908
      9  N1        -1.1900   29.4670   55.3740 N.am    0  <0>0       -0.2534
     10  C1        -2.6220   29.1690   55.2990 C.3     0  <0>0        0.1203
     11  C9        -0.3540   29.0010   54.4250 C.2     0  <0>0        0.2529
     12  O1         0.8460   29.1480   54.5460 O.2     0  <0>0       -0.2696
     13  C10       -0.8980   28.3110   53.2360 C.ar    0  <0>0        0.0566
     14  C15       -0.5680   26.9780   52.9890 C.ar    0  <0>0        0.0114
     15  C14       -1.0840   26.3350   51.8800 C.ar    0  <0>0        0.0369
     16  C13       -1.9150   27.0150   51.0080 C.ar    0  <0>0        0.0363
     17 Br         -0.6450   24.5260   51.5490 Br      0  <0>0       -0.0489
     18  C12       -2.2420   28.3410   51.2440 C.ar    0  <0>0        0.1408
     19  C11       -1.7380   28.9910   52.3540 C.ar    0  <0>0        0.0342
     20  F1        -3.0560   28.9970   50.3890 F       0  <0>0       -0.2042
@<TRIPOS>BOND
     1    20    18    1
     2    16    18   ar
     3    16    15   ar
     4    18    19   ar
     5    17    15    1
     6    15    14   ar
     7    19    13   ar
     8    14    13   ar
     9    13    11    1
    10    11    12    2
    11    11     9   am
    12    10     9    1
    13     9     1    1
    14     2     1   ar
    15     2     3   ar
    16     1     6   ar
    17     3     4   ar
    18     6     5   ar
    19     4     5   ar
    20     4     7    1
    21     7     8    3
