@<TRIPOS>MOLECULE
ZINC37865182_replica-1.pdb
 22 24 0 0 0
SMALL
GASTEIGER

@<TRIPOS>ATOM
      1  N1         0.9650   30.3850   55.4880 N.3     0  <0>0       -0.2934
      2  H9         0.9520   29.7240   56.2500 H       0  <0>0        0.1236
      3  C4        -0.0010   30.0080   54.4470 C.3     0  <0>0        0.0728
      4  C2        -0.6030   28.6420   54.7810 C.3     0  <0>0        0.0334
      5  C1         0.3440   27.8810   55.7110 C.3     0  <0>0        0.0058
      6  C3        -1.9540   28.8350   55.4740 C.3     0  <0>0        0.0058
      7  C13       -0.7980   27.8550   53.5100 C.ar    0  <0>0       -0.0215
      8  C18       -0.2700   26.5830   53.3980 C.ar    0  <0>0       -0.0042
      9  C17       -0.4530   25.8600   52.2330 C.ar    0  <0>0       -0.0003
     10  C16       -1.1560   26.4120   51.1790 C.ar    0  <0>0       -0.0000
     11  C15       -1.6800   27.6860   51.2910 C.ar    0  <0>0       -0.0003
     12  C14       -1.5010   28.4080   52.4570 C.ar    0  <0>0       -0.0042
     13  C5         0.7140   31.7500   55.9690 C.3     0  <0>0        0.0988
     14  C6         0.6880   31.7540   57.4760 C.ar    0  <0>0        0.0308
     15  C11        0.9630   32.9210   58.1710 C.ar    0  <0>0        0.1737
     16  C10        0.9330   32.9230   59.5630 C.ar    0  <0>0        0.1761
     17  O1         1.2780   34.1770   57.7390 O.3     0  <0>0       -0.4349
     18  C9         0.6400   31.7540   60.2460 C.ar    0  <0>0        0.0402
     19  O2         1.2270   34.1800   60.0040 O.3     0  <0>0       -0.4346
     20  C8         0.3730   30.5910   59.5470 C.ar    0  <0>0        0.0030
     21  C7         0.3970   30.5920   58.1660 C.ar    0  <0>0        0.0003
     22  C12        1.0450   35.0400   58.8680 C.3     0  <0>0        0.4294
@<TRIPOS>BOND
     1    10    11   ar
     2    10     9   ar
     3    11    12   ar
     4     9     8   ar
     5    12     7   ar
     6     8     7   ar
     7     7     4    1
     8     3     4    1
     9     3     1    1
    10     4     6    1
    11     4     5    1
    12     1    13    1
    13     1     2    1
    14    13    14    1
    15    14    21   ar
    16    14    15   ar
    17    17    15    1
    18    17    22    1
    19    21    20   ar
    20    15    16   ar
    21    22    19    1
    22    20    18   ar
    23    16    19    1
    24    16    18   ar
