@<TRIPOS>MOLECULE
ZINC35745327_replica-1.pdb
 29 30 0 0 0
SMALL
GASTEIGER

@<TRIPOS>ATOM
      1  C12       -0.1810   31.5480   55.4740 C.3     0  <0>0       -0.0105
      2  C11        0.5480   31.7960   56.7700 C.ar    0  <0>0        0.1017
      3  C10        1.5590   31.0570   57.2570 C.ar    0  <0>0        0.0336
      4  C9         1.9400   31.6450   58.4860 C.ar    0  <0>0        0.0380
      5  C8         1.1380   32.7080   58.6750 C.ar    0  <0>0        0.1461
      6  O1         0.2940   32.7920   57.6350 O.2     0  <0>0       -0.4618
      7  C4         1.1780   33.6430   59.8560 C.3     0  <0>0        0.1386
      8  C3         1.5000   32.8490   61.1240 C.3     0  <0>0        0.0343
      9  C2         0.2320   32.7020   61.9680 C.3     0  <0>0        0.0029
     10  C1        -0.1990   31.2330   61.9870 C.3     0  <0>0        0.0001
     11  C5         2.2570   34.7030   59.6310 C.3     0  <0>0        0.0343
     12  C6         1.8020   35.6700   58.5350 C.3     0  <0>0        0.0029
     13  C7         2.9610   35.9300   57.5710 C.3     0  <0>0        0.0001
     14  O2        -0.0930   34.2790   60.0020 O.3     0  <0>0       -0.3796
     15  H34       -0.5280   34.4870   59.1640 H       0  <0>0        0.2108
     16  N1        -0.9010   30.2700   55.5540 N.4     0  <0>0        0.3945
     17  H35       -0.2370   29.5100   55.5500 H       0  <0>0       -0.0786
     18  C13       -1.8000   30.1410   54.4000 C.3     0  <0>0       -0.0492
     19  C14       -1.3940   28.9460   53.5770 C.ar    0  <0>0       -0.0409
     20  C19       -1.9020   28.7790   52.3030 C.ar    0  <0>0        0.0233
     21  C18       -1.5240   27.6820   51.5460 C.ar    0  <0>0        0.1398
     22  C17       -0.6480   26.7480   52.0710 C.ar    0  <0>0        0.0296
     23  F1        -2.0160   27.5220   50.2980 F       0  <0>0       -0.2042
     24  C16       -0.1460   26.9140   53.3480 C.ar    0  <0>0        0.0019
     25  C15       -0.5180   28.0110   54.1000 C.ar    0  <0>0       -0.0062
     26  C20       -1.6860   30.2280   56.7940 C.3     0  <0>0       -0.0762
     27  C21       -1.4490   28.8930   57.5030 C.3     0  <0>0       -0.0208
     28  C22       -1.1270   29.1480   58.9770 C.3     0  <0>0       -0.0022
     29  C23       -2.7080   28.0310   57.3990 C.3     0  <0>0       -0.0022
@<TRIPOS>BOND
     1    23    21    1
     2    21    22   ar
     3    21    20   ar
     4    22    24   ar
     5    20    19   ar
     6    24    25   ar
     7    19    25   ar
     8    19    18    1
     9    18    16    1
    10     1    16    1
    11     1     2    1
    12    17    16    1
    13    16    26    1
    14     2     3   ar
    15     2     6   ar
    16    26    27    1
    17     3     4   ar
    18    29    27    1
    19    27    28    1
    20    13    12    1
    21     6     5   ar
    22     4     5   ar
    23    12    11    1
    24     5     7    1
    25    15    14    1
    26    11     7    1
    27     7    14    1
    28     7     8    1
    29     8     9    1
    30     9    10    1
