@<TRIPOS>MOLECULE
ZINC18600912_replica-1.pdb
 27 29 0 0 0
SMALL
GASTEIGER

@<TRIPOS>ATOM
      1  C1         5.8140   33.3690   58.0650 C.3     0  <0>0        0.0218
      2  C2         4.7210   34.4320   58.1950 C.3     0  <0>0        0.1311
      3  C3         3.7690   34.0420   59.2950 C.2     0  <0>0        0.2362
      4  O1         4.1220   34.1110   60.4550 O.2     0  <0>0       -0.2739
      5  N1         2.5260   33.6160   58.9940 N.am    0  <0>0       -0.2815
      6  H5         2.2220   33.6220   58.0730 H       0  <0>0        0.1549
      7  C4         1.6740   33.1650   60.0100 C.ar    0  <0>0        0.0783
      8  C9         0.7670   34.0400   60.5980 C.ar    0  <0>0        0.1557
      9  C8        -0.0770   33.5900   61.5970 C.ar    0  <0>0        0.0605
     10  F1         0.7080   35.3270   60.1910 F       0  <0>0       -0.2028
     11  C7        -0.0120   32.2730   62.0180 C.ar    0  <0>0        0.1425
     12  C6         0.8950   31.4020   61.4370 C.ar    0  <0>0        0.0311
     13  F2        -0.8330   31.8360   62.9970 F       0  <0>0       -0.2041
     14  C5         1.7360   31.8460   60.4350 C.ar    0  <0>0        0.0193
     15  S1         5.4750   36.0290   58.5860 S.3     0  <0>0       -0.0686
     16  C10        6.5440   36.2120   57.1970 C.ar    0  <0>0        0.1757
     17  N3         7.9060   36.2680   57.2390 N.ar    0  <0>0       -0.2839
     18  C12        8.3430   36.4120   55.9400 C.ar    0  <0>0        0.1026
     19  C11        7.2480   36.4470   55.1620 C.ar    0  <0>0        0.1200
     20  N2         6.1650   36.3240   55.9460 N.ar    0  <0>0       -0.2192
     21  C13        8.7090   36.1910   58.3860 C.ar    0  <0>0        0.0659
     22  C18        9.4500   35.0450   58.6410 C.ar    0  <0>0        0.0181
     23  C17       10.2410   34.9710   59.7710 C.ar    0  <0>0        0.0082
     24  C16       10.2950   36.0380   60.6490 C.ar    0  <0>0        0.0347
     25  C15        9.5570   37.1820   60.3980 C.ar    0  <0>0        0.0082
     26 Br         11.3790   35.9350   62.1950 Br      0  <0>0       -0.0490
     27  C14        8.7690   37.2630   59.2680 C.ar    0  <0>0        0.0181
@<TRIPOS>BOND
     1    19    18   ar
     2    19    20   ar
     3    18    17   ar
     4    20    16   ar
     5    16    17   ar
     6    16    15    1
     7    17    21    1
     8     1     2    1
     9     6     5    1
    10     2    15    1
    11     2     3    1
    12    21    22   ar
    13    21    27   ar
    14    22    23   ar
    15     5     3   am
    16     5     7    1
    17    27    25   ar
    18     3     4    2
    19    23    24   ar
    20     7    14   ar
    21     7     8   ar
    22    10     8    1
    23    25    24   ar
    24    14    12   ar
    25     8     9   ar
    26    24    26    1
    27    12    11   ar
    28     9    11   ar
    29    11    13    1
