@<TRIPOS>MOLECULE
ZINC36934289_replica-1.pdb
 19 19 0 0 0
SMALL
GASTEIGER

@<TRIPOS>ATOM
      1  C7        -0.2440   27.2780   53.4550 C.ar    0  <0>0        0.0506
      2  C8        -0.4390   26.2230   52.5770 C.ar    0  <0>0        0.0148
      3  C9        -1.2600   26.3830   51.4750 C.ar    0  <0>0        0.0013
      4  C10       -1.8890   27.5930   51.2460 C.ar    0  <0>0        0.0006
      5  C11       -1.7010   28.6500   52.1160 C.ar    0  <0>0        0.0076
      6  C12       -0.8840   28.4970   53.2270 C.ar    0  <0>0        0.0458
      7  N1         0.5870   27.1190   54.5700 N.pl3   0  <0>0       -0.3323
      8  H14        1.2190   27.8160   54.8070 H       0  <0>0        0.1468
      9  C6         0.5020   25.9010   55.3790 C.3     0  <0>0        0.0870
     10  C4        -0.1320   26.2310   56.7320 C.3     0  <0>0        0.0195
     11  C5         0.6890   27.3180   57.4280 C.3     0  <0>0        0.0017
     12  C3        -0.1580   24.9740   57.6030 C.3     0  <0>0        0.0017
     13  C2         0.1240   23.7460   56.7340 C.3     0  <0>0        0.0001
     14  C1        -0.1440   22.4750   57.5440 C.3     0  <0>0        0.0000
     15  S1        -0.6480   29.8410   54.3420 S.3     0  <0>0       -0.0132
     16  C13       -1.9770   29.6400   55.5600 C.3     0  <0>0        0.4477
     17  F1        -1.4740   29.8770   56.8440 F       0  <0>0       -0.1600
     18  F2        -3.0030   30.5510   55.2860 F       0  <0>0       -0.1600
     19  F3        -2.4800   28.3360   55.4910 F       0  <0>0       -0.1600
@<TRIPOS>BOND
     1     4     3   ar
     2     4     5   ar
     3     3     2   ar
     4     5     6   ar
     5     2     1   ar
     6     6     1   ar
     7     6    15    1
     8     1     7    1
     9    15    16    1
    10     7     8    1
    11     7     9    1
    12    18    16    1
    13     9    10    1
    14    19    16    1
    15    16    17    1
    16    10    11    1
    17    10    12    1
    18    13    14    1
    19    13    12    1
