@<TRIPOS>MOLECULE
ZINC00107182_replica-1.pdb
 24 26 0 0 0
SMALL
GASTEIGER

@<TRIPOS>ATOM
      1  C8         5.3160   34.1660   58.7800 C.2     0  <0>0        0.2319
      2  N2         5.7910   34.1310   57.5440 N.2     0  <0>0       -0.3098
      3  C9         7.0560   34.3500   57.2690 C.1     0  <0>0        0.2126
      4  O2         7.4820   34.3160   56.1250 O.2     0  <0>0       -0.2087
      5  C10        7.9390   34.6450   58.4230 C.2     0  <0>0        0.1275
      6  C11        9.2680   34.9100   58.4560 C.2     0  <0>0        0.0194
      7  S1         6.7550   34.5600   59.7620 S.3     0  <0>0       -0.0260
      8  N1         4.0290   33.9570   59.2030 N.pl3   0  <0>0       -0.2550
      9  C1         3.7730   33.1310   60.3850 C.3     0  <0>0        0.1203
     10  C2         2.9610   34.5370   58.5080 C.ar    0  <0>0        0.0543
     11  C7         3.1610   35.6970   57.7710 C.ar    0  <0>0        0.0180
     12  C6         2.1080   36.2690   57.0850 C.ar    0  <0>0        0.0379
     13  C5         0.8500   35.6840   57.1340 C.ar    0  <0>0        0.1338
     14  C4         0.6500   34.5270   57.8710 C.ar    0  <0>0        0.0379
     15  C3         1.7030   33.9510   58.5530 C.ar    0  <0>0        0.0180
     16  O1        -0.1880   36.2480   56.4590 O.3     0  <0>0       -0.5055
     17  H8        -0.7310   35.6140   55.9720 H       0  <0>0        0.2922
     18  C12        9.9070   35.3160   59.7160 C.ar    0  <0>0        0.0013
     19  C17        9.6590   36.5850   60.2520 C.ar    0  <0>0        0.0009
     20  C16       10.2600   36.9600   61.4340 C.ar    0  <0>0        0.0114
     21  C15       11.1090   36.0840   62.0910 C.ar    0  <0>0        0.0577
     22  C14       11.3600   34.8260   61.5650 C.ar    0  <0>0        0.0114
     23 Cl         11.8630   36.5660   63.5790 Cl      0  <0>0       -0.0822
     24  C13       10.7620   34.4350   60.3880 C.ar    0  <0>0        0.0009
@<TRIPOS>BOND
     1    17    16    1
     2     4     3    2
     3    16    13    1
     4    12    13   ar
     5    12    11   ar
     6    13    14   ar
     7     3     2    2
     8     3     5    1
     9     2     1    2
    10    11    10   ar
    11    14    15   ar
    12     5     6    2
    13     5     7    1
    14     6    18    1
    15    10    15   ar
    16    10     8    1
    17     1     8    1
    18     1     7    1
    19     8     9    1
    20    18    19   ar
    21    18    24   ar
    22    19    20   ar
    23    24    22   ar
    24    20    21   ar
    25    22    21   ar
    26    21    23    1
