@<TRIPOS>MOLECULE
ZINC64810075_replica-1.pdb
 25 27 0 0 0
SMALL
GASTEIGER

@<TRIPOS>ATOM
      1  C4        -1.6550   30.4420   55.8060 C.2     0  <0>0        0.2283
      2  O1        -2.4340   31.2920   56.1840 O.2     0  <0>0       -0.2747
      3  N1        -0.3590   30.5060   56.1710 N.am    0  <0>0       -0.2567
      4  H7         0.2630   29.8270   55.8680 H       0  <0>0        0.1573
      5  C5         0.0860   31.5450   56.9830 C.2     0  <0>0        0.2267
      6  N3         0.4240   32.6980   56.4420 N.2     0  <0>0       -0.3806
      7  C12        0.8480   33.6980   57.2240 C.ar    0  <0>0        0.1626
      8  C7         0.9380   33.5040   58.6250 C.ar    0  <0>0        0.1621
      9  C11        1.2110   34.9410   56.6770 C.ar    0  <0>0        0.0348
     10  N2         0.5940   32.3230   59.1550 N.2     0  <0>0       -0.3838
     11  C8         1.3900   34.5560   59.4380 C.ar    0  <0>0        0.0347
     12  C6         0.1770   31.3540   58.3730 C.2     0  <0>0        0.2328
     13 Cl         -0.2680   29.8240   59.0640 Cl      0  <0>0       -0.0442
     14  C9         1.7330   35.7470   58.8730 C.ar    0  <0>0        0.0028
     15  C10        1.6430   35.9380   57.4960 C.ar    0  <0>0        0.0028
     16  C3        -2.1360   29.3170   54.9280 C.3     0  <0>0        0.0898
     17  C2        -1.6080   29.5170   53.5060 C.3     0  <0>0        0.0314
     18  C1        -2.6900   30.1790   52.6490 C.3     0  <0>0        0.0052
     19  C13       -1.2440   28.1810   52.9120 C.ar    0  <0>0       -0.0219
     20  C18       -1.7120   27.8310   51.6590 C.ar    0  <0>0       -0.0020
     21  C17       -1.3740   26.6080   51.1120 C.ar    0  <0>0        0.0293
     22  C16       -0.5750   25.7290   51.8220 C.ar    0  <0>0        0.1401
     23  C15       -0.1120   26.0780   53.0790 C.ar    0  <0>0        0.0293
     24  F1        -0.2480   24.5310   51.2900 F       0  <0>0       -0.2042
     25  C14       -0.4460   27.3040   53.6230 C.ar    0  <0>0       -0.0020
@<TRIPOS>BOND
     1    21    20   ar
     2    21    22   ar
     3    24    22    1
     4    20    19   ar
     5    22    23   ar
     6    18    17    1
     7    19    17    1
     8    19    25   ar
     9    23    25   ar
    10    17    16    1
    11    16     1    1
    12     1     3   am
    13     1     2    2
    14     4     3    1
    15     3     5    1
    16     6     5    2
    17     6     7    2
    18     9     7   ar
    19     9    15   ar
    20     5    12    1
    21     7     8   ar
    22    15    14   ar
    23    12    13    1
    24    12    10    2
    25     8    10    2
    26     8    11   ar
    27    14    11   ar
