@<TRIPOS>MOLECULE
ZINC56226772_replica-1.pdb
 24 26 0 0 0
SMALL
GASTEIGER

@<TRIPOS>ATOM
      1  C1        13.1670   32.9260   63.0830 C.3     0  <0>0        0.0307
      2  C2        12.3250   34.0580   62.5540 C.2     0  <0>0       -0.0253
      3  C3        12.3140   35.2790   63.2250 C.2     0  <0>0       -0.0023
      4  C4        11.5650   36.3220   62.7750 C.2     0  <0>0        0.0279
      5  C5        10.7880   36.1740   61.6140 C.2     0  <0>0        0.1163
      6  C6        10.8010   34.9310   60.9310 C.3     0  <0>0        0.0961
      7  C7        11.5900   33.8770   61.4220 C.2     0  <0>0       -0.0193
      8  C8        10.0250   34.7790   59.7690 C.2     0  <0>0       -0.0083
      9  C9         9.2740   35.8680   59.3410 C.2     0  <0>0        0.0757
     10  C10        9.3140   37.0680   60.0730 C.2     0  <0>0        0.1130
     11  N1        10.0440   37.1870   61.1520 N.2     0  <0>0       -0.4098
     12  C11        8.4980   38.2440   59.6030 C.3     0  <0>0        0.0665
     13  C12        8.4400   35.7650   58.1260 C.2     0  <0>0        0.2546
     14  O1         8.8880   36.1120   57.0500 O.2     0  <0>0       -0.2695
     15  N2         7.1840   35.2840   58.2090 N.am    0  <0>0       -0.2533
     16  C13        6.5980   34.9870   59.5190 C.3     0  <0>0        0.1203
     17  C14        6.4370   35.0710   57.0450 C.ar    0  <0>0        0.0566
     18  C19        5.4880   36.0020   56.6480 C.ar    0  <0>0        0.0469
     19  C18        4.7540   35.7910   55.4930 C.ar    0  <0>0        0.1686
     20  C17        4.9610   34.6450   54.7410 C.ar    0  <0>0        0.1675
     21  F1         3.8360   36.7000   55.1020 F       0  <0>0       -0.2018
     22  C16        5.9040   33.7130   55.1400 C.ar    0  <0>0        0.0332
     23  F2         4.2410   34.4360   53.6160 F       0  <0>0       -0.2018
     24  C15        6.6420   33.9240   56.2890 C.ar    0  <0>0        0.0174
@<TRIPOS>BOND
     1    23    20    1
     2    20    22   ar
     3    20    19   ar
     4    21    19    1
     5    22    24   ar
     6    19    18   ar
     7    24    17   ar
     8    18    17   ar
     9    17    15    1
    10    14    13    2
    11    13    15   am
    12    13     9    1
    13    15    16    1
    14     9     8    2
    15     9    10    1
    16    12    10    1
    17     8     6    1
    18    10    11    2
    19     6     7    1
    20     6     5    1
    21    11     5    2
    22     7     2    2
    23     5     4    1
    24     2     1    1
    25     2     3    1
    26     4     3    2
