@<TRIPOS>MOLECULE
ZINC35181348_replica-1.pdb
 21 22 0 0 0
SMALL
GASTEIGER

@<TRIPOS>ATOM
      1  C9        -2.4140   29.5980   54.4460 C.3     0  <0>0        0.2267
      2  C10       -3.0890   30.5920   53.4990 C.3     0  <0>0        0.0559
      3  O2        -2.2610   30.1950   55.7340 O.3     0  <0>0       -0.4714
      4  C6        -2.1350   29.3530   56.7940 C.ar    0  <0>0        0.1392
      5  C5        -1.1900   29.6090   57.7770 C.ar    0  <0>0        0.0400
      6  C4        -1.0630   28.7540   58.8540 C.ar    0  <0>0        0.0400
      7  C3        -1.8820   27.6390   58.9540 C.ar    0  <0>0        0.1388
      8  C8        -2.8240   27.3790   57.9700 C.ar    0  <0>0        0.0400
      9  C7        -2.9530   28.2370   56.8950 C.ar    0  <0>0        0.0400
     10  O1        -1.7570   26.7970   60.0150 O.3     0  <0>0       -0.4755
     11  C2        -0.4650   26.2340   60.2480 C.3     0  <0>0        0.2055
     12  C1        -0.1480   25.2130   59.1540 C.3     0  <0>0        0.0512
     13  C11       -1.0580   29.2260   53.9010 C.2     0  <0>0        0.2127
     14  O3        -0.1290   29.9970   54.0090 O.2     0  <0>0       -0.2875
     15  C12       -0.8640   27.9270   53.2390 C.ar    0  <0>0        0.0384
     16  C17       -1.4080   27.6980   51.9710 C.ar    0  <0>0        0.0053
     17  C16       -1.2170   26.4800   51.3540 C.ar    0  <0>0        0.0297
     18  C15       -0.4970   25.4810   51.9910 C.ar    0  <0>0        0.1401
     19  C14        0.0400   25.7010   53.2510 C.ar    0  <0>0        0.0297
     20  F1        -0.3170   24.2880   51.3820 F       0  <0>0       -0.2042
     21  C13       -0.1390   26.9150   53.8770 C.ar    0  <0>0        0.0053
@<TRIPOS>BOND
     1    17    16   ar
     2    17    18   ar
     3    20    18    1
     4    16    15   ar
     5    18    19   ar
     6    15    21   ar
     7    15    13    1
     8    19    21   ar
     9     2     1    1
    10    13    14    2
    11    13     1    1
    12     1     3    1
    13     3     4    1
    14     4     9   ar
    15     4     5   ar
    16     9     8   ar
    17     5     6   ar
    18     8     7   ar
    19     6     7   ar
    20     7    10    1
    21    12    11    1
    22    10    11    1
