@<TRIPOS>MOLECULE
ZINC04476214_replica-1.pdb
 24 26 0 0 0
SMALL
GASTEIGER

@<TRIPOS>ATOM
      1  C1         4.7910   33.1080   61.4270 C.3     0  <0>0        0.1429
      2  C2         5.3750   34.1530   60.5120 C.1     0  <0>0        0.1158
      3  N1         5.9850   35.1880   61.0550 N.2     0  <0>0       -0.3326
      4  C3         6.5410   36.1750   60.3540 C.2     0  <0>0        0.1797
      5  C4         6.4430   36.0620   58.9370 C.3     0  <0>0        0.1454
      6  C5         6.9590   36.9900   57.9450 C.2     0  <0>0       -0.0274
      7  C6         6.7460   36.6710   56.6480 C.2     0  <0>0        0.0023
      8  S1         5.8580   35.1340   56.6830 S.3     0  <0>0       -0.0631
      9  C7         5.7720   34.9200   58.4310 C.2     0  <0>0        0.1616
     10  N2         5.2490   33.9870   59.2020 N.2     0  <0>0       -0.3407
     11  C8         7.1730   37.4490   55.4410 C.3     0  <0>0        0.0324
     12  C9         7.5700   38.8630   55.8890 C.3     0  <0>0        0.0055
     13  C10        8.4990   38.7500   57.1010 C.3     0  <0>0        0.0047
     14  C11        7.7080   38.2670   58.3170 C.3     0  <0>0        0.0231
     15  N3         7.1720   37.2450   60.9640 N.pl3   0  <0>0       -0.3105
     16  H12        6.8180   38.1420   60.8590 H       0  <0>0        0.1489
     17  C12        8.3780   37.0220   61.7660 C.3     0  <0>0        0.0888
     18  C13        9.5970   36.9490   60.8450 C.3     0  <0>0        0.0212
     19  C14       10.6820   36.0940   61.5020 C.3     0  <0>0        0.0023
     20  C15       10.8840   34.8140   60.6890 C.3     0  <0>0        0.0119
     21  C16       10.0100   34.8630   59.4340 C.3     0  <0>0        0.1141
     22  C17        9.1100   33.6540   59.4010 C.2     0  <0>0        0.3649
     23  O1         8.7300   33.1570   60.4350 O.co2   0  <0>0       -0.2457
     24  O2         8.7310   33.1310   58.2260 O.co2   0  <0>0       -0.2457
@<TRIPOS>BOND
     1    11    12    1
     2    11     7    1
     3    12    13    1
     4     7     8    1
     5     7     6    2
     6     8     9    1
     7    13    14    1
     8     6    14    1
     9     6     5    1
    10    24    22   ar
    11     9     5    1
    12     9    10    2
    13     5     4    1
    14    10     2    2
    15    22    21    1
    16    22    23   ar
    17    21    20    1
    18     4    15    1
    19     4     3    2
    20     2     3    2
    21     2     1    1
    22    20    19    1
    23    18    19    1
    24    18    17    1
    25    16    15    1
    26    15    17    1
