@<TRIPOS>MOLECULE
ZINC21731305_replica-1.pdb
 26 27 0 0 0
SMALL
GASTEIGER

@<TRIPOS>ATOM
      1  C8        -0.0210   30.0300   56.4330 C.ar    0  <0>0        0.1865
      2  N2         0.6380   30.0770   57.5740 N.ar    0  <0>0       -0.1249
      3  N3         1.5580   31.0770   57.7920 N.ar    0  <0>0       -0.1331
      4  C9         1.7690   31.9890   56.8630 C.ar    0  <0>0        0.1610
      5  S1         0.6410   31.4560   55.5840 S.2     0  <0>0       -0.0242
      6  S2         2.8690   33.3670   56.8770 S.3     0  <0>0       -0.0782
      7  C10        1.7720   34.8020   57.0440 C.3     0  <0>0        0.1299
      8  C11        2.4960   36.0570   56.5540 C.3     0  <0>0        0.0218
      9  C12        1.3890   34.9760   58.4910 C.2     0  <0>0        0.2325
     10  O1         1.7690   35.9500   59.1050 O.2     0  <0>0       -0.2742
     11  N4         0.6260   34.0490   59.1030 N.am    0  <0>0       -0.3037
     12  H12        0.2810   33.1660   58.5460 H       0  <0>0        0.1495
     13  C13        0.2540   34.2190   60.5100 C.3     0  <0>0        0.0894
     14  C14        0.5300   32.9200   61.2700 C.3     0  <0>0        0.0196
     15  C15        2.0320   32.6290   61.2550 C.3     0  <0>0        0.0017
     16  C16        0.0520   33.0650   62.7160 C.3     0  <0>0        0.0017
     17  N1        -0.9790   29.1170   56.0070 N.pl3   0  <0>0       -0.2915
     18  H8        -1.9920   29.1430   56.4350 H       0  <0>0        0.1541
     19  C3        -0.6560   28.1690   55.0330 C.ar    0  <0>0        0.0465
     20  C2        -1.1040   28.3310   53.7280 C.ar    0  <0>0        0.0022
     21  C1        -1.9380   29.5300   53.3590 C.3     0  <0>0        0.0332
     22  C7        -0.7870   27.3870   52.7690 C.ar    0  <0>0        0.0549
     23  C6        -0.0160   26.2880   53.1060 C.ar    0  <0>0        0.0112
     24 Cl         -1.3510   27.5840   51.1390 Cl      0  <0>0       -0.0825
     25  C5         0.4300   26.1250   54.4040 C.ar    0  <0>0        0.0021
     26  C4         0.1120   27.0610   55.3680 C.ar    0  <0>0        0.0144
@<TRIPOS>BOND
     1    24    22    1
     2    22    23   ar
     3    22    20   ar
     4    23    25   ar
     5    21    20    1
     6    20    19   ar
     7    25    26   ar
     8    19    26   ar
     9    19    17    1
    10     5     1   ar
    11     5     4   ar
    12    17     1    1
    13    17    18    1
    14     1     2   ar
    15     8     7    1
    16     4     6    1
    17     4     3   ar
    18     6     7    1
    19     7     9    1
    20     2     3   ar
    21     9    11   am
    22     9    10    2
    23    12    11    1
    24    11    13    1
    25    13    14    1
    26    15    14    1
    27    14    16    1
