@<TRIPOS>MOLECULE
ZINC07542586_replica-1.pdb
 28 30 0 0 0
SMALL
GASTEIGER

@<TRIPOS>ATOM
      1  C11        0.0140   31.4460   56.8520 C.3     0  <0>0        0.2300
      2  C12        0.1050   32.0480   55.4490 C.3     0  <0>0        0.0560
      3  C10        1.1050   32.0210   57.7180 C.2     0  <0>0        0.2139
      4  O1         2.2690   31.7910   57.4630 O.2     0  <0>0       -0.2875
      5  C3         0.7700   32.8320   58.8320 C.ar    0  <0>0        0.0511
      6  C2         0.6390   34.2040   58.8480 C.ar    0  <0>0        0.0368
      7  C1         0.8340   35.1090   57.6590 C.3     0  <0>0        0.0499
      8  N1         0.3110   34.6130   60.0880 N.ar    0  <0>0       -0.3563
      9  C9         0.2090   33.5370   60.9460 C.ar    0  <0>0        0.0565
     10  H1         0.1640   35.5370   60.3430 H       0  <0>0        0.1656
     11  C4         0.4900   32.3760   60.2080 C.ar    0  <0>0        0.0195
     12  C8        -0.0980   33.4260   62.2980 C.ar    0  <0>0        0.0170
     13  C5         0.4600   31.1300   60.8270 C.ar    0  <0>0        0.0016
     14  C6         0.1540   31.0410   62.1680 C.ar    0  <0>0        0.0001
     15  C7        -0.1240   32.1860   62.8990 C.ar    0  <0>0        0.0015
     16  O2         0.1690   30.0270   56.7720 O.3     0  <0>0       -0.4412
     17  C13       -0.9590   29.2920   56.6970 C.2     0  <0>0        0.3417
     18  O3        -1.8350   29.4320   57.5300 O.2     0  <0>0       -0.2449
     19  C14       -1.1250   28.3540   55.6460 C.2     0  <0>0        0.0820
     20  C15       -0.4900   28.5390   54.4680 C.2     0  <0>0        0.0097
     21  C16       -0.6620   27.5690   53.3800 C.ar    0  <0>0        0.0342
     22  C21       -0.1020   26.2850   53.4810 C.ar    0  <0>0        0.1386
     23  C20       -0.2770   25.3760   52.4490 C.ar    0  <0>0        0.0369
     24  C19       -0.9890   25.7370   51.3220 C.ar    0  <0>0        0.0031
     25  C18       -1.5400   27.0040   51.2140 C.ar    0  <0>0        0.0002
     26  C17       -1.3830   27.9190   52.2310 C.ar    0  <0>0        0.0030
     27  O4         0.6020   25.9340   54.5860 O.3     0  <0>0       -0.4714
     28  C22        0.6000   24.5510   54.9440 C.3     0  <0>0        0.2525
@<TRIPOS>BOND
     1    25    24   ar
     2    25    26   ar
     3    24    23   ar
     4    26    21   ar
     5    23    22   ar
     6    21    22   ar
     7    21    20    1
     8    22    27    1
     9    20    19    2
    10    27    28    1
    11     2     1    1
    12    19    17    1
    13    17    16    1
    14    17    18    2
    15    16     1    1
    16     1     3    1
    17     4     3    2
    18     7     6    1
    19     3     5    1
    20     5     6   ar
    21     5    11   ar
    22     6     8   ar
    23     8    10    1
    24     8     9   ar
    25    11    13   ar
    26    11     9   ar
    27    13    14   ar
    28     9    12   ar
    29    14    15   ar
    30    12    15   ar
