@<TRIPOS>MOLECULE
ZINC37181564_replica-1.pdb
 23 24 0 0 0
SMALL
GASTEIGER

@<TRIPOS>ATOM
      1  C7        11.0160   36.0750   61.8880 C.3     0  <0>0        0.0742
      2  S1        10.8430   34.3500   61.3540 S.3     0  <0>0       -0.1127
      3  C5        12.1290   33.5070   62.2140 C.ar    0  <0>0        0.0252
      4  C4        11.8680   32.2980   62.8490 C.ar    0  <0>0        0.0100
      5  C3        12.8790   31.6410   63.5220 C.ar    0  <0>0        0.0719
      6  C2        14.1500   32.1830   63.5650 C.ar    0  <0>0        0.0039
      7  C1        14.4140   33.3860   62.9340 C.ar    0  <0>0        0.0004
      8  C6        13.4090   34.0490   62.2590 C.ar    0  <0>0        0.0061
      9  C15       12.5950   30.3300   64.2100 C.3     0  <0>0        0.4186
     10  F1        13.1580   30.3450   65.4910 F       0  <0>0       -0.1659
     11  F2        11.2120   30.1460   64.3100 F       0  <0>0       -0.1659
     12  F3        13.1530   29.2830   63.4680 F       0  <0>0       -0.1659
     13  C8         9.7260   36.8370   61.5750 C.3     0  <0>0        0.0742
     14  S2         8.6100   35.7710   60.6230 S.3     0  <0>0       -0.1127
     15  C9         8.3550   36.6550   59.1200 C.ar    0  <0>0        0.0253
     16  C14        8.5320   38.0320   59.0850 C.ar    0  <0>0        0.0074
     17  C13        8.3380   38.7230   57.9050 C.ar    0  <0>0        0.0146
     18  C12        7.9540   38.0430   56.7570 C.ar    0  <0>0        0.0416
     19  C11        7.7700   36.6670   56.7940 C.ar    0  <0>0        0.0146
     20  C10        7.9700   35.9740   57.9710 C.ar    0  <0>0        0.0074
     21  N1         7.7510   38.7440   55.5620 N.pl3   0  <0>0       -0.3570
     22  H13        7.6400   38.2610   54.7290 H       0  <0>0        0.1424
     23  H14        7.7220   39.7140   55.5680 H       0  <0>0        0.1424
@<TRIPOS>BOND
     1    22    21    1
     2    21    23    1
     3    21    18    1
     4    18    19   ar
     5    18    17   ar
     6    19    20   ar
     7    17    16   ar
     8    20    15   ar
     9    16    15   ar
    10    15    14    1
    11    14    13    1
    12     2     1    1
    13     2     3    1
    14    13     1    1
    15     3     8   ar
    16     3     4   ar
    17     8     7   ar
    18     4     5   ar
    19     7     6   ar
    20    12     9    1
    21     5     6   ar
    22     5     9    1
    23     9    11    1
    24     9    10    1
