@<TRIPOS>MOLECULE
ZINC26543923_replica-1.pdb
 20 21 0 0 0
SMALL
GASTEIGER

@<TRIPOS>ATOM
      1  C7         9.8220   35.7230   60.1170 C.ar    0  <0>0        0.0002
      2  C8         9.5690   37.0170   60.5760 C.ar    0  <0>0        0.0009
      3  C9         8.9280   37.9230   59.7580 C.ar    0  <0>0        0.0113
      4  C10        8.5290   37.5510   58.4850 C.ar    0  <0>0        0.0616
      5  C11        8.7720   36.2670   58.0270 C.ar    0  <0>0        0.0820
      6  C12        9.4130   35.3510   58.8360 C.ar    0  <0>0        0.0047
      7 Cl          7.7210   38.6960   57.4620 Cl      0  <0>0       -0.0823
      8  C5        10.5160   34.7470   60.9880 C.ar    0  <0>0        0.0064
      9  C4         9.9990   33.4480   61.1480 C.ar    0  <0>0        0.0798
     10  C3        10.6670   32.5370   61.9680 C.ar    0  <0>0        0.0066
     11  C2        11.8190   32.9160   62.6240 C.ar    0  <0>0        0.0002
     12  C1        12.3240   34.1980   62.4700 C.ar    0  <0>0        0.0000
     13  C6        11.6810   35.1100   61.6590 C.ar    0  <0>0        0.0002
     14  C14        8.7640   33.0500   60.4480 C.2     0  <0>0        0.3878
     15  O1         8.8140   32.2570   59.5290 O.co2   0  <0>0       -0.2406
     16  O2         7.5780   33.5650   60.8280 O.co2   0  <0>0       -0.2406
     17  C13        8.3340   35.8680   56.6410 C.3     0  <0>0        0.4194
     18  F1         8.8430   36.7800   55.7110 F       0  <0>0       -0.1658
     19  F2         8.8150   34.5860   56.3500 F       0  <0>0       -0.1658
     20  F3         6.9360   35.8670   56.5760 F       0  <0>0       -0.1658
@<TRIPOS>BOND
     1    18    17    1
     2    19    17    1
     3    20    17    1
     4    17     5    1
     5     7     4    1
     6     5     4   ar
     7     5     6   ar
     8     4     3   ar
     9     6     1   ar
    10    15    14   ar
    11     3     2   ar
    12     1     2   ar
    13     1     8    1
    14    14    16   ar
    15    14     9    1
    16     8     9   ar
    17     8    13   ar
    18     9    10   ar
    19    13    12   ar
    20    10    11   ar
    21    12    11   ar
