@<TRIPOS>MOLECULE
ZINC39491516_replica-1.pdb
 31 33 0 0 0
SMALL
GASTEIGER

@<TRIPOS>ATOM
      1  N1         6.8680   34.8640   60.2510 N.ar    0  <0>0       -0.3260
      2  C6         7.2290   33.5440   60.2670 C.ar    0  <0>0        0.0694
      3  C7         6.3100   32.8100   59.6200 C.ar    0  <0>0       -0.0251
      4  C8         5.2750   33.7370   59.1540 C.ar    0  <0>0        0.0115
      5  C9         5.6760   35.0170   59.5860 C.ar    0  <0>0        0.0595
      6  C10        4.8800   36.1240   59.2930 C.ar    0  <0>0        0.0174
      7  C11        3.7180   35.9690   58.5990 C.ar    0  <0>0        0.0079
      8  C12        3.3060   34.7010   58.1660 C.ar    0  <0>0        0.0757
      9  C13        4.0900   33.5830   58.4400 C.ar    0  <0>0        0.0075
     10  C5         7.6360   35.9530   60.8610 C.3     0  <0>0        0.1103
     11  C4         8.9460   36.1470   60.0920 C.3     0  <0>0        0.0449
     12  C3         9.9200   36.9610   60.9440 C.3     0  <0>0        0.0063
     13  C2        10.8800   36.0140   61.6680 C.3     0  <0>0        0.0004
     14  C1        11.0200   34.7190   60.8650 C.3     0  <0>0        0.0000
     15  C20        8.6680   36.8810   58.8060 C.ar    0  <0>0       -0.0206
     16  C25        8.4910   38.2530   58.8190 C.ar    0  <0>0       -0.0042
     17  C24        8.2400   38.9280   57.6380 C.ar    0  <0>0       -0.0003
     18  C23        8.1590   38.2310   56.4470 C.ar    0  <0>0       -0.0000
     19  C22        8.3320   36.8590   56.4360 C.ar    0  <0>0       -0.0003
     20  C21        8.5860   36.1850   57.6150 C.ar    0  <0>0       -0.0042
     21  C16        6.3370   31.3180   59.4130 C.3     0  <0>0       -0.0527
     22  N2         7.4690   30.9650   58.5460 N.4     0  <0>0        0.3865
     23  H20        8.2660   31.5350   58.7850 H       0  <0>0       -0.0840
     24  H33        7.7010   29.9910   58.6750 H       0  <0>0       -0.0840
     25  C17        7.1020   31.1970   57.1430 C.3     0  <0>0       -0.0813
     26  C18        7.8500   32.4240   56.6170 C.3     0  <0>0       -0.0233
     27  C19        6.8740   33.3340   55.8680 C.3     0  <0>0       -0.0023
     28  C14        2.0460   34.5510   57.4150 C.2     0  <0>0        0.3413
     29  O1         1.8240   35.2580   56.4520 O.2     0  <0>0       -0.2449
     30  O2         1.1390   33.6290   57.7970 O.3     0  <0>0       -0.4413
     31  C15        0.3950   33.9070   58.9850 C.3     0  <0>0        0.2560
@<TRIPOS>BOND
     1    27    26    1
     2    19    18   ar
     3    19    20   ar
     4    18    17   ar
     5    29    28    2
     6    26    25    1
     7    25    22    1
     8    28    30    1
     9    28     8    1
    10    20    15   ar
    11    17    16   ar
    12    30    31    1
    13     8     9   ar
    14     8     7   ar
    15     9     4   ar
    16    22    24    1
    17    22    23    1
    18    22    21    1
    19     7     6   ar
    20    15    16   ar
    21    15    11    1
    22     4     5   ar
    23     4     3   ar
    24     6     5   ar
    25    21     3    1
    26     5     1   ar
    27     3     2   ar
    28    11    10    1
    29    11    12    1
    30     1     2   ar
    31     1    10    1
    32    14    13    1
    33    12    13    1
