@<TRIPOS>MOLECULE
ZINC62023248_replica-1.pdb
 22 24 0 0 0
SMALL
GASTEIGER

@<TRIPOS>ATOM
      1  N1         0.4450   28.9670   55.3490 N.am    0  <0>0       -0.2802
      2  C8        -0.2250   29.0270   56.5160 C.2     0  <0>0        0.2459
      3  O1        -1.0760   28.1980   56.7720 O.2     0  <0>0       -0.2701
      4  H7         1.1790   29.5790   55.1790 H       0  <0>0        0.1552
      5  C9         0.0750   30.1000   57.4860 C.2     0  <0>0        0.0387
      6  C14        0.3280   31.3940   57.0360 C.3     0  <0>0        0.0932
      7  C13        0.6060   32.3980   57.9600 C.2     0  <0>0        0.1510
      8  C12        0.6360   32.0950   59.3310 C.2     0  <0>0        0.1734
      9  N2         0.8840   33.7260   57.8500 N.2     0  <0>0       -0.3720
     10  C11        0.3870   30.7980   59.7630 C.2     0  <0>0        0.0397
     11  O2         0.9310   33.2510   59.9650 O.2     0  <0>0       -0.4281
     12  C10        0.1100   29.8140   58.8560 C.2     0  <0>0        0.0039
     13  C15        1.0740   34.2120   59.0400 C.2     0  <0>0        0.2572
     14  C16        1.4060   35.6520   59.3380 C.3     0  <0>0        0.1103
     15  C5         0.0840   28.0240   54.3820 C.ar    0  <0>0        0.0568
     16  C4         0.6410   26.7510   54.4100 C.ar    0  <0>0        0.0149
     17  C3         0.2830   25.8210   53.4540 C.ar    0  <0>0       -0.0030
     18  C2        -0.6310   26.1550   52.4700 C.ar    0  <0>0       -0.0213
     19  C1        -1.0200   25.1360   51.4300 C.3     0  <0>0        0.0310
     20  C7        -1.1830   27.4210   52.4360 C.ar    0  <0>0        0.0037
     21  C6        -0.8320   28.3560   53.3920 C.ar    0  <0>0        0.0477
     22 Br         -1.5940   30.0860   53.3490 Br      0  <0>0       -0.0477
@<TRIPOS>BOND
     1    19    18    1
     2    20    18   ar
     3    20    21   ar
     4    18    17   ar
     5    22    21    1
     6    21    15   ar
     7    17    16   ar
     8    15    16   ar
     9    15     1    1
    10     4     1    1
    11     1     2   am
    12     2     3    2
    13     2     5    1
    14     6     5    1
    15     6     7    1
    16     5    12    2
    17     9     7    2
    18     9    13    2
    19     7     8    1
    20    12    10    1
    21    13    14    1
    22    13    11    1
    23     8    10    2
    24     8    11    1
