@<TRIPOS>MOLECULE
ZINC40741913_replica-1.pdb
 27 28 0 0 0
SMALL
GASTEIGER

@<TRIPOS>ATOM
      1  C6        10.2190   35.8270   60.6140 C.ar    0  <0>0       -0.0397
      2  C7         9.9700   34.8150   59.7050 C.ar    0  <0>0        0.0338
      3  C8         9.0770   35.0210   58.6650 C.ar    0  <0>0        0.1727
      4  C9         8.4320   36.2470   58.5400 C.ar    0  <0>0        0.1831
      5  C10        8.6850   37.2580   59.4550 C.ar    0  <0>0        0.0942
      6  C11        9.5740   37.0430   60.4930 C.ar    0  <0>0        0.0083
      7 Cl          7.8830   38.7900   59.3010 Cl      0  <0>0       -0.0790
      8  O1         7.5550   36.4550   57.5210 O.3     0  <0>0       -0.4667
      9  C12        6.1670   36.2920   57.8170 C.3     0  <0>0        0.2319
     10  C13        5.4640   35.7000   56.6210 C.ar    0  <0>0        0.0172
     11  C18        4.0950   35.5160   56.6450 C.ar    0  <0>0       -0.0223
     12  C17        3.4500   34.9780   55.5470 C.ar    0  <0>0       -0.0045
     13  C19        3.3030   35.9070   57.8670 C.3     0  <0>0        0.0308
     14  C16        4.1760   34.6150   54.4280 C.ar    0  <0>0       -0.0003
     15  C15        5.5470   34.7950   54.4070 C.ar    0  <0>0       -0.0002
     16  C14        6.1910   35.3370   55.5030 C.ar    0  <0>0       -0.0010
     17  O2         8.8320   34.0270   57.7710 O.3     0  <0>0       -0.4724
     18  C20        8.3600   32.7840   58.2950 C.3     0  <0>0        0.2057
     19  C21        6.9760   32.4810   57.7200 C.3     0  <0>0        0.0512
     20  C5        11.1900   35.6000   61.7440 C.3     0  <0>0       -0.0541
     21  N1        11.9660   34.3790   61.4860 N.4     0  <0>0        0.3878
     22  H10       12.8720   34.6270   61.1200 H       0  <0>0       -0.0839
     23  H29       11.4770   33.8070   60.8140 H       0  <0>0       -0.0839
     24  C3        12.1320   33.6310   62.7390 C.3     0  <0>0       -0.0615
     25  C4        11.1960   32.4200   62.7380 C.3     0  <0>0       -0.0234
     26  C2        13.5810   33.1550   62.8610 C.3     0  <0>0       -0.0213
     27  C1        13.6100   31.7630   63.4940 C.3     0  <0>0       -0.0022
@<TRIPOS>BOND
     1    15    14   ar
     2    15    16   ar
     3    14    12   ar
     4    16    10   ar
     5    12    11   ar
     6    10    11   ar
     7    10     9    1
     8    11    13    1
     9     8     9    1
    10     8     4    1
    11    19    18    1
    12    17    18    1
    13    17     3    1
    14     4     3   ar
    15     4     5   ar
    16     3     2   ar
    17     7     5    1
    18     5     6   ar
    19     2     1   ar
    20     6     1   ar
    21     1    20    1
    22    23    21    1
    23    22    21    1
    24    21    20    1
    25    21    24    1
    26    25    24    1
    27    24    26    1
    28    26    27    1
