@<TRIPOS>MOLECULE
ZINC02281173_replica-1.pdb
 28 31 0 0 0
SMALL
GASTEIGER

@<TRIPOS>ATOM
      1  C12       -0.7120   30.0670   56.8420 C.3     0  <0>0        0.1581
      2  C13       -0.6660   29.7560   58.2840 C.2     0  <0>0        0.2360
      3  O1        -1.2820   28.8110   58.7400 O.2     0  <0>0       -0.2742
      4  N1         0.0810   30.5460   59.0830 N.am    0  <0>0       -0.2662
      5  C14        0.7610   31.5930   58.5940 C.2     0  <0>0        0.1501
      6  S1         1.6770   32.5440   59.6840 S.2     0  <0>0       -0.0176
      7  N2         0.7610   31.9370   57.2990 N.am    0  <0>0       -0.2194
      8  C15        0.0630   31.2360   56.3820 C.2     0  <0>0        0.2430
      9  O2         0.0710   31.5580   55.2100 O.2     0  <0>0       -0.2736
     10  H9         0.1250   30.3540   60.0320 H       0  <0>0        0.1565
     11  C11       -1.4530   29.3000   55.9610 C.3     0  <0>0        0.0447
     12  C10       -0.8500   28.2060   55.2940 C.ar    0  <0>0       -0.0212
     13  C4        -1.0490   28.0000   53.8570 C.ar    0  <0>0       -0.0039
     14  C3        -1.8360   28.8720   53.0980 C.ar    0  <0>0       -0.0003
     15  C5        -0.4270   26.8930   53.2320 C.ar    0  <0>0       -0.0003
     16  C2        -1.9960   28.6440   51.7630 C.ar    0  <0>0       -0.0000
     17  C1        -1.3870   27.5560   51.1440 C.ar    0  <0>0       -0.0000
     18  C6        -0.6140   26.6890   51.8540 C.ar    0  <0>0       -0.0000
     19  C7         0.3630   26.0200   53.9990 C.ar    0  <0>0       -0.0000
     20  C8         0.5370   26.2280   55.3350 C.ar    0  <0>0       -0.0003
     21  C9        -0.0550   27.2940   55.9930 C.ar    0  <0>0       -0.0042
     22  C16        1.5050   33.0510   56.8870 C.ar    0  <0>0        0.0598
     23  C21        2.7740   32.8810   56.3510 C.ar    0  <0>0        0.0176
     24  C20        3.5050   33.9800   55.9450 C.ar    0  <0>0        0.0309
     25  C19        2.9730   35.2510   56.0720 C.ar    0  <0>0        0.1402
     26  C18        1.7070   35.4240   56.6080 C.ar    0  <0>0        0.0309
     27  F1         3.6890   36.3260   55.6740 F       0  <0>0       -0.2042
     28  C17        0.9710   34.3270   57.0090 C.ar    0  <0>0        0.0176
@<TRIPOS>BOND
     1    17    16   ar
     2    17    18   ar
     3    16    14   ar
     4    18    15   ar
     5    14    13   ar
     6    15    13   ar
     7    15    19   ar
     8    13    12   ar
     9    19    20   ar
    10     9     8    2
    11    12    11    1
    12    12    21   ar
    13    20    21   ar
    14    27    25    1
    15    24    25   ar
    16    24    23   ar
    17    11     1    1
    18    25    26   ar
    19    23    22   ar
    20     8     1    1
    21     8     7   am
    22    26    28   ar
    23     1     2    1
    24    22    28   ar
    25    22     7    1
    26     7     5    1
    27     2     3    2
    28     2     4   am
    29     5     4    1
    30     5     6    2
    31     4    10    1
