@<TRIPOS>MOLECULE
ZINC03844047_replica-1.pdb
 28 31 0 0 0
SMALL
GASTEIGER

@<TRIPOS>ATOM
      1  C3         8.7360   37.0160   60.5540 C.3     0  <0>0        0.1388
      2  C4         8.9670   38.2650   59.6680 C.3     0  <0>0        0.0341
      3  C5         8.1750   38.0220   58.3540 C.3     0  <0>0        0.0029
      4  C6         8.0700   36.4950   58.2940 C.3     0  <0>0        0.0027
      5  C7         7.7700   36.1240   59.7700 C.3     0  <0>0        0.0289
      6  C8         7.9590   34.6230   59.8940 C.3     0  <0>0        0.0027
      7  C9         6.8780   33.9610   59.0270 C.3     0  <0>0        0.0001
      8  C10        6.9490   34.4200   57.5730 C.3     0  <0>0        0.0000
      9  C11        6.9330   35.9460   57.4490 C.3     0  <0>0        0.0001
     10  C12        7.1230   36.3860   55.9980 C.3     0  <0>0        0.0000
     11  C13        6.3190   35.4920   55.0510 C.3     0  <0>0        0.0001
     12  C14        5.1890   34.8540   55.8500 C.3     0  <0>0        0.0036
     13  C15        5.7840   33.8140   56.8020 C.3     0  <0>0        0.0002
     14  C16        4.6750   33.3130   57.7270 C.3     0  <0>0        0.0037
     15  C17        3.6130   32.6210   56.8600 C.3     0  <0>0        0.0436
     16  C18        3.0420   33.6060   55.8420 C.3     0  <0>0        0.1688
     17  C19        4.1590   34.1690   54.9560 C.3     0  <0>0        0.0436
     18  C22        6.3120   32.6360   55.9810 C.3     0  <0>0        0.0000
     19  C23        6.3300   36.5050   60.1210 C.3     0  <0>0        0.0028
     20  C2        10.0340   36.2810   60.7720 C.2     0  <0>0        0.1749
     21  C1        10.7520   36.3950   62.0910 C.3     0  <0>0        0.0748
     22  O1        10.4980   35.6020   59.8870 O.2     0  <0>0       -0.2936
     23  O4         8.1660   37.3970   61.8080 O.3     0  <0>0       -0.3798
     24  H36        7.3020   37.0000   61.9830 H       0  <0>0        0.2108
     25  O2         2.3930   34.6970   56.5470 O.3     0  <0>0       -0.4523
     26  C20        1.2550   34.4100   57.2000 C.2     0  <0>0        0.3174
     27  O3         0.4500   33.6550   56.7070 O.2     0  <0>0       -0.2501
     28  C21        0.9830   35.0280   58.5470 C.3     0  <0>0        0.1212
@<TRIPOS>BOND
     1    17    16    1
     2    17    12    1
     3    11    12    1
     4    11    10    1
     5    16    25    1
     6    16    15    1
     7    12    13    1
     8    18    13    1
     9    10     9    1
    10    25    26    1
    11    27    26    2
    12    13     8    1
    13    13    14    1
    14    15    14    1
    15    26    28    1
    16     9     8    1
    17     9     4    1
    18     8     7    1
    19     4     3    1
    20     4     5    1
    21     3     2    1
    22     7     6    1
    23     2     1    1
    24     5     6    1
    25     5    19    1
    26     5     1    1
    27    22    20    2
    28     1    20    1
    29     1    23    1
    30    20    21    1
    31    23    24    1
