@<TRIPOS>MOLECULE
ZINC04698214_replica-1.pdb
 30 33 0 0 0
SMALL
GASTEIGER

@<TRIPOS>ATOM
      1  C13        6.4700   36.5950   59.3540 C.2     0  <0>0        0.2229
      2  O2         5.6690   37.3460   59.8690 O.2     0  <0>0       -0.2751
      3  N1         6.2030   35.2760   59.2750 N.am    0  <0>0       -0.3043
      4  H15        6.8100   34.6860   58.8020 H       0  <0>0        0.1494
      5  C9         7.7610   37.1370   58.7980 C.3     0  <0>0        0.0915
      6  C8         8.7290   35.9820   58.5340 C.3     0  <0>0        0.0360
      7  C5         9.6440   35.8130   59.7190 C.ar    0  <0>0       -0.0217
      8  C4         9.7700   36.8310   60.6460 C.ar    0  <0>0       -0.0046
      9  C3        10.6090   36.6760   61.7330 C.ar    0  <0>0       -0.0046
     10  C2        11.3230   35.5020   61.8940 C.ar    0  <0>0       -0.0219
     11  C1        12.2380   35.3340   63.0790 C.3     0  <0>0        0.0310
     12  C7        11.1960   34.4840   60.9680 C.ar    0  <0>0       -0.0046
     13  C6        10.3540   34.6380   59.8830 C.ar    0  <0>0       -0.0046
     14  C10        7.4800   37.8770   57.4880 C.3     0  <0>0        0.1123
     15  C11        8.6670   38.7840   57.1510 C.3     0  <0>0        0.0123
     16  C12        7.2820   36.8770   56.3780 C.2     0  <0>0        0.3648
     17  O1         8.1490   36.7090   55.5530 O.co2   0  <0>0       -0.2457
     18  O3         6.1410   36.1730   56.3060 O.co2   0  <0>0       -0.2457
     19  C14        4.9930   34.7350   59.9000 C.3     0  <0>0        0.0894
     20  C15        4.4380   33.5990   59.0380 C.3     0  <0>0        0.0212
     21  C16        2.9320   33.4720   59.2720 C.3     0  <0>0        0.0016
     22  C21        2.6700   33.1250   60.7390 C.3     0  <0>0        0.0001
     23  C20        1.1640   32.9960   60.9720 C.3     0  <0>0        0.0000
     24  C19        0.4810   34.3230   60.6320 C.3     0  <0>0        0.0000
     25  C22        0.6020   31.8890   60.0780 C.3     0  <0>0        0.0000
     26  C18        0.7420   34.6690   59.1650 C.3     0  <0>0        0.0000
     27  C17        2.2480   34.7970   58.9320 C.3     0  <0>0        0.0001
     28  C24        0.1800   33.5630   58.2710 C.3     0  <0>0        0.0000
     29  C23        0.8630   32.2360   58.6110 C.3     0  <0>0        0.0000
     30  C25        2.3690   32.3650   58.3780 C.3     0  <0>0        0.0001
@<TRIPOS>BOND
     1    17    16   ar
     2    18    16   ar
     3    16    14    1
     4    15    14    1
     5    14     5    1
     6    28    29    1
     7    28    26    1
     8    30    29    1
     9    30    21    1
    10     6     5    1
    11     6     7    1
    12    29    25    1
    13     5     1    1
    14     4     3    1
    15    27    26    1
    16    27    21    1
    17    20    21    1
    18    20    19    1
    19    26    24    1
    20    21    22    1
    21     3     1   am
    22     3    19    1
    23     1     2    2
    24     7    13   ar
    25     7     8   ar
    26    13    12   ar
    27    25    23    1
    28    24    23    1
    29     8     9   ar
    30    22    23    1
    31    12    10   ar
    32     9    10   ar
    33    10    11    1
