@<TRIPOS>MOLECULE
ZINC00105816_replica-1.pdb
 21 23 0 0 0
SMALL
GASTEIGER

@<TRIPOS>ATOM
      1  C1        -2.9440   28.9250   55.8990 C.3     0  <0>0        0.0197
      2  C2        -1.7070   29.7560   55.6770 C.3     0  <0>0        0.1077
      3  C3        -0.7330   29.6300   54.7260 C.2     0  <0>0        0.1212
      4  N1         0.2800   30.4920   54.7150 N.2     0  <0>0       -0.3843
      5  C4         0.3650   31.4590   55.6110 C.2     0  <0>0        0.2110
      6  S1        -1.1090   31.1770   56.5820 S.3     0  <0>0       -0.0607
      7  N2         1.3370   32.4360   55.7570 N.pl3   0  <0>0       -0.2813
      8  H4         1.8890   32.6890   55.0010 H       0  <0>0        0.1551
      9  C5         1.5270   33.0540   56.9980 C.ar    0  <0>0        0.0783
     10  C10        1.0980   34.3620   57.1990 C.ar    0  <0>0        0.1535
     11  C9         1.2830   34.9670   58.4280 C.ar    0  <0>0        0.0309
     12  F1         0.4970   35.0380   56.1960 F       0  <0>0       -0.2029
     13  C8         1.9030   34.2760   59.4530 C.ar    0  <0>0        0.0024
     14  C7         2.3340   32.9770   59.2550 C.ar    0  <0>0        0.0014
     15  C6         2.1480   32.3650   58.0310 C.ar    0  <0>0        0.0170
     16  C11       -0.8090   28.5490   53.7150 C.ar    0  <0>0        0.0263
     17  C16       -1.5140   28.7460   52.5300 C.ar    0  <0>0        0.0022
     18  C15       -1.5810   27.7360   51.5920 C.ar    0  <0>0        0.0001
     19  C14       -0.9460   26.5290   51.8250 C.ar    0  <0>0        0.0000
     20  C13       -0.2440   26.3270   53.0000 C.ar    0  <0>0        0.0001
     21  C12       -0.1670   27.3320   53.9420 C.ar    0  <0>0        0.0022
@<TRIPOS>BOND
     1    18    19   ar
     2    18    17   ar
     3    19    20   ar
     4    17    16   ar
     5    20    21   ar
     6    16    21   ar
     7    16     3    1
     8     4     3    2
     9     4     5    2
    10     3     2    1
    11     8     7    1
    12     5     7    1
    13     5     6    1
    14     2     1    1
    15     2     6    1
    16     7     9    1
    17    12    10    1
    18     9    10   ar
    19     9    15   ar
    20    10    11   ar
    21    15    14   ar
    22    11    13   ar
    23    14    13   ar
