@<TRIPOS>MOLECULE
ZINC34916141_replica-1.pdb
 29 32 0 0 0
SMALL
GASTEIGER

@<TRIPOS>ATOM
      1  C1         0.9950   32.2790   60.3730 C.3     0  <0>0        0.0312
      2  C2         2.3670   32.8970   60.2870 C.2     0  <0>0       -0.0167
      3  C3         3.3600   32.5410   61.2150 C.2     0  <0>0        0.0121
      4  C4         4.5900   33.0910   61.1430 C.2     0  <0>0        0.0687
      5  N1         4.8890   34.0010   60.1660 N.pl3   0  <0>0       -0.2408
      6  C5         3.9380   34.3690   59.2440 C.2     0  <0>0        0.1879
      7  C6         2.6500   33.7950   59.3070 C.2     0  <0>0        0.0438
      8  N2         4.4740   35.2520   58.4170 N.2     0  <0>0       -0.3875
      9  C7         5.7500   35.4760   58.7700 C.2     0  <0>0        0.1504
     10  C8         6.0310   34.6950   59.8730 C.3     0  <0>0        0.2089
     11  N3         7.2440   34.6270   60.5570 N.am    0  <0>0       -0.2808
     12  C9         8.2350   33.8380   60.0960 C.2     0  <0>0        0.2469
     13  O1         8.0870   33.2190   59.0580 O.2     0  <0>0       -0.2701
     14  H7         7.3750   35.1480   61.3650 H       0  <0>0        0.1516
     15  C10        9.5010   33.7240   60.8490 C.ar    0  <0>0        0.0495
     16  C15       10.4140   34.7790   60.8470 C.ar    0  <0>0       -0.0175
     17  C14       11.5920   34.6700   61.5590 C.ar    0  <0>0       -0.0041
     18  C16       10.1120   36.0390   60.0770 C.3     0  <0>0        0.0312
     19  C13       11.8730   33.5110   62.2620 C.ar    0  <0>0       -0.0003
     20  C12       10.9750   32.4590   62.2620 C.ar    0  <0>0        0.0001
     21  C11        9.7920   32.5590   61.5610 C.ar    0  <0>0        0.0042
     22  C17        6.6920   36.3990   58.0950 C.ar    0  <0>0        0.0585
     23  C22        6.9940   37.6360   58.6680 C.ar    0  <0>0        0.1425
     24  C21        7.8780   38.4900   58.0370 C.ar    0  <0>0        0.0320
     25  F1         6.4290   37.9930   59.8420 F       0  <0>0       -0.2041
     26  C20        8.4540   38.1270   56.8320 C.ar    0  <0>0        0.0319
     27  C19        8.1530   36.9040   56.2550 C.ar    0  <0>0        0.1404
     28  C18        7.2760   36.0390   56.8810 C.ar    0  <0>0        0.0342
     29  F2         8.7200   36.5560   55.0790 F       0  <0>0       -0.2042
@<TRIPOS>BOND
     1    29    27    1
     2    27    26   ar
     3    27    28   ar
     4    26    24   ar
     5    28    22   ar
     6    24    23   ar
     7    22    23   ar
     8    22     9    1
     9     8     9    2
    10     8     6    2
    11    23    25    1
    12     9    10    1
    13    13    12    2
    14     6     7    1
    15     6     5    1
    16     7     2    2
    17    10     5    1
    18    10    11    1
    19    18    16    1
    20    12    11   am
    21    12    15    1
    22     5     4    1
    23     2     1    1
    24     2     3    1
    25    11    14    1
    26    16    15   ar
    27    16    17   ar
    28    15    21   ar
    29     4     3    2
    30    17    19   ar
    31    21    20   ar
    32    19    20   ar
