@<TRIPOS>MOLECULE
ZINC58202995_replica-1.pdb
 27 30 0 0 0
SMALL
GASTEIGER

@<TRIPOS>ATOM
      1  C9         5.9570   35.4510   58.4250 C.2     0  <0>0        0.2130
      2  C10        6.6810   36.3140   57.5630 C.3     0  <0>0        0.1448
      3  C11        8.0460   36.8140   57.6810 C.2     0  <0>0       -0.0011
      4  C12        8.5230   37.6380   56.7180 C.2     0  <0>0        0.0332
      5  S1         7.1540   37.7950   55.5880 S.3     0  <0>0       -0.0717
      6  C13        5.9810   36.7590   56.4230 C.2     0  <0>0        0.0977
      7  N1         4.7380   36.3860   56.1900 N.2     0  <0>0       -0.2412
      8  C14        4.1160   35.5810   57.0290 C.3     0  <0>0        0.2533
      9  N2         4.7150   35.1210   58.1140 N.2     0  <0>0       -0.2137
     10  O1         6.5330   34.9630   59.5500 O.3     0  <0>0       -0.4395
     11  C7         6.4800   33.6230   59.7640 C.ar    0  <0>0        0.1466
     12  C6         5.9130   33.1280   60.9290 C.ar    0  <0>0        0.0375
     13  C5         5.8590   31.7630   61.1450 C.ar    0  <0>0        0.0029
     14  C4         6.3710   30.8930   60.2010 C.ar    0  <0>0       -0.0018
     15  C3         6.9370   31.3840   59.0380 C.ar    0  <0>0        0.0073
     16  C8         6.9980   32.7470   58.8210 C.ar    0  <0>0        0.0356
     17  C2         7.4950   30.4320   58.0120 C.3     0  <0>0        0.1329
     18  C1         7.0300   29.0090   58.3290 C.3     0  <0>0        0.0367
     19  O2         7.0300   30.8070   56.7130 O.3     0  <0>0       -0.3801
     20  H15        6.4770   31.5990   56.7070 H       0  <0>0        0.2108
     21  C15        8.8970   36.4270   58.8310 C.ar    0  <0>0       -0.0026
     22  C20        8.9470   37.2340   59.9670 C.ar    0  <0>0        0.0006
     23  C19        9.7380   36.8650   61.0380 C.ar    0  <0>0        0.0114
     24  C18       10.4870   35.7030   60.9800 C.ar    0  <0>0        0.0577
     25  C17       10.4440   34.9010   59.8520 C.ar    0  <0>0        0.0114
     26 Cl         11.4840   35.2490   62.3270 Cl      0  <0>0       -0.0822
     27  C16        9.6540   35.2570   58.7790 C.ar    0  <0>0        0.0006
@<TRIPOS>BOND
     1     5     6    1
     2     5     4    1
     3     7     6    2
     4     7     8    1
     5     6     2    1
     6    20    19    1
     7    19    17    1
     8     4     3    2
     9     8     9    1
    10     2     3    1
    11     2     1    1
    12     3    21    1
    13    17    18    1
    14    17    15    1
    15     9     1    2
    16     1    10    1
    17    27    21   ar
    18    27    25   ar
    19    16    15   ar
    20    16    11   ar
    21    21    22   ar
    22    15    14   ar
    23    10    11    1
    24    11    12   ar
    25    25    24   ar
    26    22    23   ar
    27    14    13   ar
    28    12    13   ar
    29    24    23   ar
    30    24    26    1
