@<TRIPOS>MOLECULE
ZINC14551840_replica-1.pdb
 26 29 0 0 0
SMALL
GASTEIGER

@<TRIPOS>ATOM
      1  C1         6.1330   33.2760   59.6340 C.3     0  <0>0        0.0341
      2  C2         7.1190   34.0040   58.7560 C.ar    0  <0>0        0.0134
      3  C3         7.5610   33.4180   57.5890 C.ar    0  <0>0        0.1401
      4  C4         8.4650   34.0870   56.7850 C.ar    0  <0>0        0.0235
      5  C5         8.9230   35.3360   57.1510 C.ar    0  <0>0       -0.0014
      6  C6         8.4850   35.9340   58.3240 C.ar    0  <0>0       -0.0095
      7  C7         7.5780   35.2660   59.1270 C.ar    0  <0>0        0.0383
      8  N1         7.0970   35.8140   60.3170 N.pl3   0  <0>0       -0.3310
      9  C8         8.0650   36.7340   60.9170 C.3     0  <0>0        0.0921
     10  C9         8.3870   37.8570   59.9450 C.3     0  <0>0        0.0262
     11  C10        9.0320   37.2950   58.6620 C.3     0  <0>0        0.0254
     12  C11        8.5720   38.2670   57.5870 C.3     0  <0>0        0.0045
     13  C12        7.4980   38.9050   57.9740 C.3     0  <0>0        0.0004
     14  C13        7.0830   38.4550   59.3620 C.3     0  <0>0        0.0023
     15  H9         6.8350   35.0890   60.9680 H       0  <0>0        0.1470
     16  C14        9.3290   35.9840   61.2490 C.ar    0  <0>0       -0.0045
     17  C19        9.3780   34.6110   61.0930 C.ar    0  <0>0       -0.0022
     18  C18       10.5350   33.9200   61.3970 C.ar    0  <0>0        0.0059
     19  C17       11.6510   34.6060   61.8590 C.ar    0  <0>0        0.0252
     20  C16       11.5980   35.9870   62.0160 C.ar    0  <0>0        0.0059
     21  C15       10.4400   36.6720   61.7060 C.ar    0  <0>0       -0.0022
     22  S1        13.1290   33.7290   62.2480 S.3     0  <0>0       -0.1127
     23  C20       12.5400   32.2070   63.0410 C.3     0  <0>0        0.0742
     24  N2         7.0650   32.0800   57.1950 N.pl3   0  <0>0        0.0574
     25  O1         6.0310   31.9760   56.5620 O.2     0  <0>0       -0.1261
     26  O2         7.6920   31.0820   57.5060 O.2     0  <0>0       -0.1261
@<TRIPOS>BOND
     1    25    24    2
     2     4     5   ar
     3     4     3   ar
     4     5     6   ar
     5    24    26    2
     6    24     3    1
     7    12    13    1
     8    12    11    1
     9     3     2   ar
    10    13    14    1
    11     6    11    1
    12     6     7   ar
    13    11    10    1
    14     2     7   ar
    15     2     1    1
    16     7     8    1
    17    14    10    1
    18    10     9    1
    19     8     9    1
    20     8    15    1
    21     9    16    1
    22    17    16   ar
    23    17    18   ar
    24    16    21   ar
    25    18    19   ar
    26    21    20   ar
    27    19    20   ar
    28    19    22    1
    29    22    23    1
