@<TRIPOS>MOLECULE
ZINC37392891_replica-1.pdb
 22 22 0 0 0
SMALL
GASTEIGER

@<TRIPOS>ATOM
      1  C7        -0.2310   30.1900   54.5160 C.3     0  <0>0        0.1467
      2  C8        -1.1670   31.3280   54.1000 C.3     0  <0>0        0.0311
      3  C6         0.4250   30.5330   55.8280 C.2     0  <0>0        0.2402
      4  N1         1.3030   31.5540   55.8950 N.am    0  <0>0       -0.3046
      5  H13        1.5120   32.0680   55.0990 H       0  <0>0        0.1494
      6  O1         0.1650   29.8920   56.8220 O.2     0  <0>0       -0.2733
      7  C4         1.9420   31.8880   57.1700 C.3     0  <0>0        0.0717
      8  C5         1.1040   32.9400   57.9000 C.3     0  <0>0        0.0213
      9  C3         3.3440   32.4430   56.9100 C.3     0  <0>0        0.0196
     10  C2         3.2770   33.4960   55.8010 C.3     0  <0>0        0.0017
     11  C1         4.4740   34.4410   55.9240 C.3     0  <0>0        0.0001
     12  N2        -1.0030   28.9540   54.6650 N.pl3   0  <0>0       -0.3248
     13  H17       -1.6360   28.8620   55.3930 H       0  <0>0        0.1473
     14  C9        -0.8270   27.9040   53.7540 C.ar    0  <0>0        0.0792
     15  C14       -0.1410   26.7600   54.1360 C.ar    0  <0>0        0.0521
     16  C13        0.0270   25.7220   53.2380 C.ar    0  <0>0        0.0377
     17 Br          0.5580   26.6150   55.8880 Br      0  <0>0       -0.0476
     18  C12       -0.4790   25.8290   51.9530 C.ar    0  <0>0        0.1430
     19  C11       -1.1580   26.9710   51.5670 C.ar    0  <0>0        0.0606
     20  F1        -0.3080   24.8160   51.0750 F       0  <0>0       -0.2041
     21  C10       -1.3340   28.0090   52.4640 C.ar    0  <0>0        0.1558
     22  F2        -1.9980   29.1240   52.0860 F       0  <0>0       -0.2028
@<TRIPOS>BOND
     1    20    18    1
     2    19    18   ar
     3    19    21   ar
     4    18    16   ar
     5    22    21    1
     6    21    14   ar
     7    16    15   ar
     8    14    15   ar
     9    14    12    1
    10     2     1    1
    11    15    17    1
    12     1    12    1
    13     1     3    1
    14    12    13    1
    15     5     4    1
    16    10    11    1
    17    10     9    1
    18     3     4   am
    19     3     6    2
    20     4     7    1
    21     9     7    1
    22     7     8    1
