@<TRIPOS>MOLECULE
ZINC24879539_replica-1.pdb
 25 28 0 0 0
SMALL
GASTEIGER

@<TRIPOS>ATOM
      1  N1         8.0660   34.8990   59.3140 N.3     0  <0>0       -0.2647
      2  C9         7.6490   33.6200   59.9090 C.3     0  <0>0        0.0801
      3  C10        6.2590   33.7960   60.5190 C.3     0  <0>0        0.0760
      4  C11        5.3260   34.4160   59.5060 C.2     0  <0>0        0.1074
      5  C12        5.8180   35.0620   58.3750 C.2     0  <0>0        0.0209
      6  C13        4.9480   35.6200   57.4770 C.2     0  <0>0        0.0207
      7  C14        3.5660   35.5210   57.7220 C.2     0  <0>0        0.1067
      8  C15        3.1350   34.8480   58.8910 C.2     0  <0>0        0.1304
      9  N2         4.0310   34.3260   59.7280 N.2     0  <0>0       -0.4089
     10  C16        1.7520   34.7450   59.1410 C.3     0  <0>0        0.0881
     11  C17        0.8900   35.3010   58.2410 C.2     0  <0>0        0.0020
     12  C18        1.3840   35.9500   57.1110 C.2     0  <0>0        0.0948
     13  N3         2.6710   36.0440   56.8810 N.2     0  <0>0       -0.2419
     14  C19        7.2940   35.1680   58.0970 C.3     0  <0>0        0.1017
     15  C8         9.5080   34.9060   59.0350 C.3     0  <0>0        0.0994
     16  C3        10.2580   35.3140   60.2770 C.ar    0  <0>0       -0.0062
     17  C2         9.9630   36.5120   60.8990 C.ar    0  <0>0       -0.0029
     18  C1        10.6510   36.8880   62.0380 C.ar    0  <0>0       -0.0003
     19  C6        11.6340   36.0630   62.5550 C.ar    0  <0>0        0.0038
     20  C5        11.9320   34.8670   61.9290 C.ar    0  <0>0        0.0712
     21  C4        11.2410   34.4900   60.7930 C.ar    0  <0>0        0.0009
     22  C7        13.0070   33.9720   62.4880 C.3     0  <0>0        0.4186
     23  F1        14.1230   34.0000   61.6450 F       0  <0>0       -0.1659
     24  F2        13.3740   34.4220   63.7620 F       0  <0>0       -0.1659
     25  F3        12.5230   32.6620   62.5770 F       0  <0>0       -0.1659
@<TRIPOS>BOND
     1    13    12    1
     2    13     7    2
     3    12    11    2
     4     6     7    1
     5     6     5    2
     6     7     8    1
     7    14     5    1
     8    14     1    1
     9    11    10    1
    10     5     4    1
    11     8    10    1
    12     8     9    2
    13    15     1    1
    14    15    16    1
    15     1     2    1
    16     4     9    2
    17     4     3    1
    18     2     3    1
    19    16    21   ar
    20    16    17   ar
    21    21    20   ar
    22    17    18   ar
    23    23    22    1
    24    20    22    1
    25    20    19   ar
    26    18    19   ar
    27    22    25    1
    28    22    24    1
