@<TRIPOS>MOLECULE
ZINC63820531_replica-1.pdb
 30 33 0 0 0
SMALL
GASTEIGER

@<TRIPOS>ATOM
      1  C9        -0.0450   28.3100   54.6690 C.3     0  <0>0        0.0664
      2  C6        -1.0940   28.1900   55.7450 C.ar    0  <0>0        0.0016
      3  C5        -2.4570   28.8450   55.7610 C.ar    0  <0>0        0.0684
      4  N1        -3.0930   28.4180   57.0130 N.ar    0  <0>0       -0.3522
      5  C4        -2.2640   27.6330   57.6570 C.ar    0  <0>0        0.0563
      6  H22       -3.9800   28.6730   57.3130 H       0  <0>0        0.1660
      7  C3        -2.3750   26.9540   58.9010 C.ar    0  <0>0        0.0170
      8  C7        -1.0080   27.4740   56.8890 C.ar    0  <0>0        0.0134
      9  C2        -1.3600   26.1900   59.3550 C.ar    0  <0>0        0.0015
     10  C1        -0.1630   26.0230   58.6460 C.ar    0  <0>0        0.0001
     11  C8         0.0480   26.6250   57.4540 C.ar    0  <0>0        0.0012
     12  C10        0.1560   29.7850   54.3160 C.3     0  <0>0        0.0981
     13  N2         0.9890   30.4230   55.3370 N.am    0  <0>0       -0.3037
     14  C11        0.5120   31.4720   56.0360 C.2     0  <0>0        0.2228
     15  O1        -0.6050   31.8890   55.8180 O.2     0  <0>0       -0.2751
     16  H10        1.8830   30.0900   55.5120 H       0  <0>0        0.1495
     17  C12        1.3700   32.1290   57.0890 C.3     0  <0>0        0.0897
     18  C13        0.5510   33.1940   57.8210 C.3     0  <0>0        0.0364
     19  C14        0.5910   32.9260   59.3030 C.ar    0  <0>0       -0.0147
     20  C17        0.4920   33.9470   60.1900 C.ar    0  <0>0        0.0312
     21  S1         0.5900   33.0890   61.7530 S.2     0  <0>0       -0.0863
     22  C16        0.7660   31.4300   61.1190 C.ar    0  <0>0        0.0351
     23  C15        0.7340   31.6360   59.7790 C.ar    0  <0>0        0.0032
     24  C18       -0.4920   27.5550   53.4440 C.ar    0  <0>0       -0.0061
     25  C23       -0.1620   26.2200   53.2950 C.ar    0  <0>0        0.0540
     26  C22       -0.5780   25.5260   52.1730 C.ar    0  <0>0        0.0111
     27 Cl          0.7670   25.4130   54.5210 Cl      0  <0>0       -0.0826
     28  C21       -1.3120   26.1700   51.1950 C.ar    0  <0>0        0.0008
     29  C20       -1.6370   27.5060   51.3420 C.ar    0  <0>0       -0.0003
     30  C19       -1.2260   28.1980   52.4660 C.ar    0  <0>0       -0.0031
@<TRIPOS>BOND
     1    28    29   ar
     2    28    26   ar
     3    29    30   ar
     4    26    25   ar
     5    30    24   ar
     6    25    24   ar
     7    25    27    1
     8    24     1    1
     9    12     1    1
    10    12    13    1
    11     1     2    1
    12    13    16    1
    13    13    14   am
    14     2     3   ar
    15     2     8   ar
    16     3     4   ar
    17    15    14    2
    18    14    17    1
    19     8    11   ar
    20     8     5   ar
    21     4     6    1
    22     4     5   ar
    23    17    18    1
    24    11    10   ar
    25     5     7   ar
    26    18    19    1
    27    10     9   ar
    28     7     9   ar
    29    19    23   ar
    30    19    20   ar
    31    23    22   ar
    32    20    21   ar
    33    22    21   ar
