@<TRIPOS>MOLECULE
ZINC66183195_replica-1.pdb
 22 23 0 0 0
SMALL
GASTEIGER

@<TRIPOS>ATOM
      1  N1        -1.0450   29.0850   52.9030 N.pl3   0  <0>0       -0.3318
      2  H9        -0.3610   29.7190   52.6350 H       0  <0>0        0.1468
      3  C8        -0.8590   27.7190   52.6800 C.ar    0  <0>0        0.0366
      4  C3        -0.1530   26.9540   53.6000 C.ar    0  <0>0       -0.0094
      5  C4         0.0250   25.6020   53.3800 C.ar    0  <0>0       -0.0031
      6  C5        -0.4950   25.0120   52.2430 C.ar    0  <0>0       -0.0006
      7  C6        -1.1940   25.7720   51.3220 C.ar    0  <0>0       -0.0031
      8  C7        -1.3760   27.1230   51.5370 C.ar    0  <0>0       -0.0090
      9  C17       -2.1370   27.9510   50.5330 C.3     0  <0>0        0.0323
     10  C2         0.4140   27.5970   54.8390 C.3     0  <0>0        0.0276
     11  C1         0.6290   26.5310   55.9150 C.3     0  <0>0        0.0051
     12  C9        -2.2730   29.5620   53.5440 C.3     0  <0>0        0.1085
     13  C10       -1.9580   30.7910   54.4000 C.3     0  <0>0        0.1085
     14  N2        -2.6850   30.7030   55.6680 N.pl3   0  <0>0       -0.3313
     15  H14       -3.4100   31.3190   55.8560 H       0  <0>0        0.1469
     16  C11       -2.3330   29.7310   56.6080 C.ar    0  <0>0        0.0447
     17  C16       -1.2180   29.9150   57.4160 C.ar    0  <0>0        0.0152
     18  C15       -0.8760   28.9550   58.3480 C.ar    0  <0>0        0.0127
     19  C14       -1.6360   27.8060   58.4700 C.ar    0  <0>0        0.0578
     20  C13       -2.7450   27.6170   57.6630 C.ar    0  <0>0        0.0127
     21 Cl         -1.1980   26.5980   59.6390 Cl      0  <0>0       -0.0822
     22  C12       -3.0940   28.5760   56.7330 C.ar    0  <0>0        0.0152
@<TRIPOS>BOND
     1     9     8    1
     2     7     8   ar
     3     7     6   ar
     4     8     3   ar
     5     6     5   ar
     6     2     1    1
     7     3     1    1
     8     3     4   ar
     9     1    12    1
    10     5     4   ar
    11    12    13    1
    12     4    10    1
    13    13    14    1
    14    10    11    1
    15    14    15    1
    16    14    16    1
    17    16    22   ar
    18    16    17   ar
    19    22    20   ar
    20    17    18   ar
    21    20    19   ar
    22    18    19   ar
    23    19    21    1
