@<TRIPOS>MOLECULE
ZINC58632647_replica-1.pdb
 20 20 0 0 0
SMALL
GASTEIGER

@<TRIPOS>ATOM
      1  C1         0.6640   31.4440   55.5490 C.3     0  <0>0        0.0217
      2  C2        -0.3800   31.5820   56.6580 C.3     0  <0>0        0.1280
      3  C3         0.2710   32.1450   57.8940 C.2     0  <0>0        0.2324
      4  O1         0.5380   31.4160   58.8260 O.2     0  <0>0       -0.2742
      5  N1         0.5560   33.4610   57.9650 N.am    0  <0>0       -0.3068
      6  H5         0.3430   34.0450   57.2200 H       0  <0>0        0.1493
      7  C4         1.1890   34.0100   59.1660 C.3     0  <0>0        0.0569
      8  C5         0.2540   33.8270   60.3650 C.3     0  <0>0        0.0196
      9  C6         2.5050   33.2760   59.4310 C.3     0  <0>0        0.0196
     10  C7         1.4670   35.5000   58.9610 C.3     0  <0>0        0.0196
     11  S1        -1.0800   29.9510   57.0340 S.3     0  <0>0       -0.1053
     12  C8        -0.9500   29.0690   55.5130 C.ar    0  <0>0        0.0256
     13  C13       -0.1730   27.9200   55.4390 C.ar    0  <0>0        0.0058
     14  C12       -0.0800   27.2290   54.2470 C.ar    0  <0>0       -0.0038
     15  C11       -0.7470   27.6870   53.1260 C.ar    0  <0>0       -0.0225
     16  C10       -1.5150   28.8340   53.1940 C.ar    0  <0>0       -0.0038
     17  C9        -1.6190   29.5270   54.3850 C.ar    0  <0>0        0.0058
     18  C14       -0.6350   26.9350   51.8250 C.3     0  <0>0        0.0224
     19  C15       -0.5690   25.4330   52.1080 C.3     0  <0>0        0.0047
     20  C16       -1.8580   27.2360   50.9550 C.3     0  <0>0        0.0047
@<TRIPOS>BOND
     1    20    18    1
     2    18    19    1
     3    18    15    1
     4    15    16   ar
     5    15    14   ar
     6    16    17   ar
     7    14    13   ar
     8    17    12   ar
     9    13    12   ar
    10    12    11    1
    11     1     2    1
    12     2    11    1
    13     2     3    1
    14     6     5    1
    15     3     5   am
    16     3     4    2
    17     5     7    1
    18    10     7    1
    19     7     9    1
    20     7     8    1
