@<TRIPOS>MOLECULE
ZINC02173036_replica-1.pdb
 23 24 0 0 0
SMALL
GASTEIGER

@<TRIPOS>ATOM
      1  C5        -0.7100   30.3710   57.0750 C.2     0  <0>0        0.2912
      2  C6        -0.2720   30.6520   55.7700 C.2     0  <0>0        0.0868
      3  C7         0.8660   31.4410   55.6110 C.2     0  <0>0        0.1191
      4  N1         1.4860   31.9000   56.6870 N.2     0  <0>0       -0.1513
      5  C8         1.0470   31.6110   57.9020 C.1     0  <0>0        0.2549
      6  N2        -0.0290   30.8670   58.0990 N.2     0  <0>0       -0.2835
      7  C13       -1.0000   30.1210   54.5910 C.ar    0  <0>0        0.0076
      8  C18       -0.5970   28.9270   53.9990 C.ar    0  <0>0        0.0060
      9  C17       -1.2800   28.4380   52.9030 C.ar    0  <0>0        0.0301
     10  C16       -2.3630   29.1330   52.3940 C.ar    0  <0>0        0.0058
     11  I1        -0.6750   26.6420   52.0100 I       0  <0>0       -0.0425
     12  C15       -2.7670   30.3190   52.9780 C.ar    0  <0>0        0.0004
     13  C14       -2.0950   30.8150   54.0770 C.ar    0  <0>0        0.0003
     14  O1        -1.8100   29.6100   57.2830 O.2     0  <0>0       -0.4584
     15  C2        -1.6180   28.3600   57.9490 C.3     0  <0>0        0.1360
     16  C1        -0.4060   27.6440   57.3500 C.3     0  <0>0        0.0437
     17  C3        -1.3800   28.6070   59.4400 C.3     0  <0>0        0.0437
     18  C4        -2.8640   27.4890   57.7690 C.3     0  <0>0        0.0437
     19  O2         1.7160   32.0980   58.9740 O.2     0  <0>0       -0.4152
     20  C9         1.3360   33.3930   59.4420 C.3     0  <0>0        0.1474
     21  C10        2.5630   34.3070   59.4680 C.3     0  <0>0        0.0448
     22  C11        0.2800   33.9850   58.5060 C.3     0  <0>0        0.0448
     23  C12        0.7580   33.2760   60.8540 C.3     0  <0>0        0.0448
@<TRIPOS>BOND
     1    11     9    1
     2    10     9   ar
     3    10    12   ar
     4     9     8   ar
     5    12    13   ar
     6     8     7   ar
     7    13     7   ar
     8     7     2    1
     9     3     2    2
    10     3     4    1
    11     2     1    1
    12     4     5    2
    13     1    14    1
    14     1     6    2
    15    14    15    1
    16    16    15    1
    17    18    15    1
    18     5     6    2
    19     5    19    1
    20    15    17    1
    21    22    20    1
    22    19    20    1
    23    20    21    1
    24    20    23    1
