@<TRIPOS>MOLECULE
ZINC66908398_replica-1.pdb
 28 29 0 0 0
SMALL
GASTEIGER

@<TRIPOS>ATOM
      1  N1         1.5560   32.3830   55.7610 N.am    0  <0>0       -0.2904
      2  C9         1.5550   33.5810   56.3790 C.2     0  <0>0        0.3039
      3  O1         0.6340   33.8870   57.1130 O.2     0  <0>0       -0.2526
      4  N2         2.5750   34.4410   56.1860 N.am    0  <0>0       -0.2641
      5  C10        2.6480   35.6980   56.9410 C.3     0  <0>0        0.0966
      6  C11        4.0150   35.7850   57.6260 C.3     0  <0>0        0.0412
      7  C12        5.1170   35.6160   56.5780 C.3     0  <0>0        0.0750
      8  C13        4.9920   34.2400   55.9190 C.3     0  <0>0        0.0412
      9  C14        3.6390   34.1340   55.2200 C.3     0  <0>0        0.0966
     10  H18        2.2520   32.1700   55.1190 H       0  <0>0        0.1509
     11  C7         0.5060   31.4060   56.0560 C.3     0  <0>0        0.0731
     12  C8         0.9150   30.5710   57.2710 C.3     0  <0>0        0.0213
     13  C6         0.3090   30.4880   54.8480 C.3     0  <0>0        0.0196
     14  C5        -1.1860   30.2560   54.6220 C.3     0  <0>0        0.0017
     15  C4        -1.3820   29.3020   53.4430 C.3     0  <0>0        0.0001
     16  C3        -0.6650   27.9810   53.7310 C.3     0  <0>0        0.0000
     17  C2        -0.7090   27.0950   52.4850 C.3     0  <0>0        0.0000
     18  C1        -1.5680   27.7640   51.4110 C.3     0  <0>0        0.0000
     19  N3         6.4280   35.7310   57.2230 N.am    0  <0>0       -0.3058
     20  C15        7.2750   36.7150   56.8610 C.2     0  <0>0        0.2224
     21  O2         6.9520   37.5060   56.0000 O.2     0  <0>0       -0.2751
     22  H28        6.6860   35.0980   57.9120 H       0  <0>0        0.1494
     23  C16        8.6220   36.8330   57.5250 C.3     0  <0>0        0.0850
     24  C17        8.5060   36.4180   58.9930 C.3     0  <0>0        0.0091
     25  C21        9.4150   35.2090   59.2730 C.3     0  <0>0        0.0005
     26  C20       10.4280   35.6600   60.3460 C.3     0  <0>0        0.0000
     27  C19        9.7230   36.8350   61.0660 C.3     0  <0>0        0.0000
     28  C18        8.9980   37.5610   59.9050 C.3     0  <0>0        0.0005
@<TRIPOS>BOND
     1    18    17    1
     2    17    16    1
     3    15    16    1
     4    15    14    1
     5    14    13    1
     6    13    11    1
     7    10     1    1
     8     9     8    1
     9     9     4    1
    10     1    11    1
    11     1     2   am
    12     8     7    1
    13    21    20    2
    14    11    12    1
    15     4     2   am
    16     4     5    1
    17     2     3    2
    18     7    19    1
    19     7     6    1
    20    20    19   am
    21    20    23    1
    22     5     6    1
    23    19    22    1
    24    23    24    1
    25    24    25    1
    26    24    28    1
    27    25    26    1
    28    28    27    1
    29    26    27    1
