@<TRIPOS>MOLECULE
ZINC32609629_replica-1.pdb
 21 22 0 0 0
SMALL
GASTEIGER

@<TRIPOS>ATOM
      1  C3        -0.3710   28.9610   56.9550 C.2     0  <0>0        0.2485
      2  O1        -1.4690   28.4460   56.9540 O.2     0  <0>0       -0.2727
      3  N1         0.2910   29.1380   55.7950 N.am    0  <0>0       -0.2817
      4  H5         1.2460   29.6830   55.7840 H       0  <0>0        0.1549
      5  C4        -0.2360   28.6270   54.6030 C.ar    0  <0>0        0.0619
      6  C9        -1.0090   29.4360   53.7790 C.ar    0  <0>0        0.0720
      7  C8        -1.5280   28.9290   52.6030 C.ar    0  <0>0        0.0249
      8 Cl         -1.3250   31.0830   54.2300 Cl      0  <0>0       -0.0809
      9  C7        -1.2770   27.6170   52.2440 C.ar    0  <0>0        0.0691
     10  C6        -0.5060   26.8080   53.0620 C.ar    0  <0>0        0.0695
     11 Cl         -1.9300   26.9830   50.7660 Cl      0  <0>0       -0.0813
     12  C5         0.0190   27.3120   54.2380 C.ar    0  <0>0        0.0278
     13 Cl         -0.1930   25.1610   52.6080 Cl      0  <0>0       -0.0813
     14  C2         0.2560   29.3970   58.2540 C.3     0  <0>0        0.1812
     15  C1        -0.5830   28.8780   59.4240 C.3     0  <0>0        0.0363
     16  N2         0.3110   30.8610   58.3030 N.ar    0  <0>0       -0.2420
     17  N3        -0.2820   31.7390   57.3870 N.ar    0  <0>0       -0.1667
     18  C12       -0.0160   32.9640   57.7630 C.ar    0  <0>0        0.1283
     19  C11        0.7550   32.9050   58.9290 C.ar    0  <0>0        0.0741
     20  C10        0.9350   31.6010   59.2430 C.ar    0  <0>0        0.1038
     21 Br          1.4170   34.3860   59.9010 Br      0  <0>0       -0.0457
@<TRIPOS>BOND
     1    11     9    1
     2     9     7   ar
     3     9    10   ar
     4     7     6   ar
     5    13    10    1
     6    10    12   ar
     7     6     8    1
     8     6     5   ar
     9    12     5   ar
    10     5     3    1
    11     4     3    1
    12     3     1   am
    13     2     1    2
    14     1    14    1
    15    17    18   ar
    16    17    16   ar
    17    18    19   ar
    18    14    16    1
    19    14    15    1
    20    16    20   ar
    21    19    20   ar
    22    19    21    1
