@<TRIPOS>MOLECULE
ZINC08534279_replica-1.pdb
 29 31 0 0 0
SMALL
GASTEIGER

@<TRIPOS>ATOM
      1  C10        9.3280   35.9470   58.9380 C.ar    0  <0>0       -0.0066
      2  C11        9.2630   37.0290   59.7960 C.ar    0  <0>0       -0.0032
      3  C12        8.7450   38.2330   59.3570 C.ar    0  <0>0        0.0029
      4  C13        8.2820   38.3570   58.0600 C.ar    0  <0>0        0.0400
      5  C14        8.3400   37.2760   57.1970 C.ar    0  <0>0        0.1720
      6  C15        8.8650   36.0650   57.6370 C.ar    0  <0>0        0.1666
      7  C9         9.8980   34.6370   59.4180 C.3     0  <0>0       -0.0505
      8  N1        10.8500   34.8960   60.5150 N.4     0  <0>0        0.3903
      9  H24       11.8060   34.7420   60.1760 H       0  <0>0       -0.0835
     10  H25       10.7500   35.8700   60.8260 H       0  <0>0       -0.0835
     11  C2        10.5830   33.9930   61.6490 C.3     0  <0>0       -0.0381
     12  C1         9.7510   32.8030   61.1690 C.3     0  <0>0       -0.0189
     13  C3        11.8930   33.4980   62.2060 C.ar    0  <0>0       -0.0420
     14  C8        13.0330   34.2710   62.0840 C.ar    0  <0>0       -0.0063
     15  C7        14.2340   33.8170   62.5950 C.ar    0  <0>0       -0.0004
     16  C6        14.2960   32.5910   63.2300 C.ar    0  <0>0       -0.0000
     17  C5        13.1560   31.8180   63.3530 C.ar    0  <0>0       -0.0004
     18  C4        11.9530   32.2740   62.8460 C.ar    0  <0>0       -0.0063
     19  O1         8.9240   35.0000   56.7930 O.3     0  <0>0       -0.4680
     20  C16        7.6910   34.3500   56.4810 C.3     0  <0>0        0.2330
     21  C17        7.4430   33.2380   57.4670 C.ar    0  <0>0        0.0317
     22  C22        6.5010   33.3970   58.4670 C.ar    0  <0>0        0.0572
     23  C21        6.2740   32.3750   59.3720 C.ar    0  <0>0        0.0112
     24 Cl          5.6010   34.8760   58.5850 Cl      0  <0>0       -0.0825
     25  C20        6.9900   31.1970   59.2770 C.ar    0  <0>0        0.0008
     26  C19        7.9330   31.0390   58.2780 C.ar    0  <0>0       -0.0002
     27  C18        8.1560   32.0570   57.3700 C.ar    0  <0>0        0.0002
     28  O2         7.8840   37.3970   55.9210 O.3     0  <0>0       -0.4684
     29  C23        6.4970   37.7000   55.7530 C.3     0  <0>0        0.2526
@<TRIPOS>BOND
     1    29    28    1
     2    28     5    1
     3    20    19    1
     4    20    21    1
     5    19     6    1
     6     5     6   ar
     7     5     4   ar
     8    27    21   ar
     9    27    26   ar
    10    21    22   ar
    11     6     1   ar
    12     4     3   ar
    13    26    25   ar
    14    22    24    1
    15    22    23   ar
    16     1     7    1
    17     1     2   ar
    18    25    23   ar
    19     3     2   ar
    20     7     8    1
    21     9     8    1
    22     8    10    1
    23     8    11    1
    24    12    11    1
    25    11    13    1
    26    14    13   ar
    27    14    15   ar
    28    13    18   ar
    29    15    16   ar
    30    18    17   ar
    31    16    17   ar
