@<TRIPOS>MOLECULE
ZINC04000027_replica-1.pdb
 29 30 0 0 0
SMALL
GASTEIGER

@<TRIPOS>ATOM
      1  C14        5.9850   37.0240   58.7140 C.3     0  <0>0       -0.0232
      2  C6         5.1390   35.7530   58.8150 C.3     0  <0>0        0.0027
      3  C10        3.6540   36.1270   58.8350 C.3     0  <0>0        0.0296
      4  C9         2.8190   34.8570   59.0180 C.3     0  <0>0        0.1151
      5  O1         3.2140   34.1950   60.2220 O.3     0  <0>0       -0.3563
      6  C8         4.5810   33.7800   60.2370 C.3     0  <0>0        0.1420
      7  C7         5.4860   35.0070   60.1070 C.3     0  <0>0        0.0321
      8  C5         5.4230   34.8510   57.6110 C.3     0  <0>0        0.0001
      9  C4         6.8070   35.1770   57.0460 C.3     0  <0>0        0.0000
     10  C2         7.4470   33.9000   56.4980 C.3     0  <0>0        0.0000
     11  C1         7.7520   32.9450   57.6540 C.3     0  <0>0        0.0000
     12  C3         6.4830   33.2260   55.5210 C.3     0  <0>0        0.0000
     13  C11        1.3360   35.2280   59.1010 C.3     0  <0>0        0.0272
     14  C12        0.6510   34.8900   57.7760 C.3     0  <0>0        0.0025
     15  C13        0.6760   34.4370   60.2330 C.3     0  <0>0        0.0025
     16  C15        6.4060   37.4690   60.1160 C.3     0  <0>0       -0.0813
     17  N2         7.5480   38.3950   60.0060 N.4     0  <0>0        0.3864
     18  H42        7.9620   38.5350   60.9360 H       0  <0>0       -0.0840
     19  H43        7.2190   39.2960   59.6400 H       0  <0>0       -0.0840
     20  C16        8.5700   37.8440   59.0970 C.3     0  <0>0       -0.0543
     21  C17        9.3890   36.8180   59.8380 C.ar    0  <0>0       -0.0436
     22  C22        9.9250   37.1250   61.0760 C.ar    0  <0>0       -0.0051
     23  C21       10.6750   36.1870   61.7570 C.ar    0  <0>0        0.0141
     24  C20       10.8920   34.9340   61.1990 C.ar    0  <0>0        0.0479
     25  C19       10.3510   34.6280   59.9560 C.ar    0  <0>0        0.0141
     26  C18        9.5980   35.5690   59.2820 C.ar    0  <0>0       -0.0051
     27  N1        11.6500   33.9840   61.8850 N.pl3   0  <0>0       -0.3041
     28  C23       11.0380   32.7200   62.3030 C.3     0  <0>0        0.1122
     29  C24       13.0590   34.2500   62.1880 C.3     0  <0>0        0.1122
@<TRIPOS>BOND
     1    12    10    1
     2    10     9    1
     3    10    11    1
     4     9     8    1
     5     8     2    1
     6    14    13    1
     7     1     2    1
     8     1    16    1
     9     2     3    1
    10     2     7    1
    11     3     4    1
    12     4    13    1
    13     4     5    1
    14    20    21    1
    15    20    17    1
    16    13    15    1
    17    26    21   ar
    18    26    25   ar
    19    19    17    1
    20    21    22   ar
    21    25    24   ar
    22    17    16    1
    23    17    18    1
    24     7     6    1
    25     5     6    1
    26    22    23   ar
    27    24    23   ar
    28    24    27    1
    29    27    29    1
    30    27    28    1
