@<TRIPOS>MOLECULE
ZINC49544221_replica-1.pdb
 22 23 0 0 0
SMALL
GASTEIGER

@<TRIPOS>ATOM
      1  N1        -0.9000   31.7110   55.5380 N.3     0  <0>0       -0.2924
      2  H13       -1.8710   31.9290   55.3740 H       0  <0>0        0.1236
      3  C4        -0.6790   31.3000   56.9310 C.3     0  <0>0        0.0829
      4  C3         0.1070   29.9890   56.9570 C.3     0  <0>0        0.0208
      5  C2        -0.5790   29.0010   57.9030 C.3     0  <0>0        0.0017
      6  C1        -2.0080   28.7400   57.4190 C.3     0  <0>0        0.0001
      7  C5         0.1000   32.3690   57.6530 C.ar    0  <0>0        0.0215
      8  S1         0.7530   32.3540   59.3150 S.2     0  <0>0       -0.0895
      9  C8         1.4970   33.9770   59.3060 C.ar    0  <0>0        0.0352
     10  C7         1.1960   34.4180   58.0610 C.ar    0  <0>0        0.0072
     11  C6         0.4790   33.5930   57.2130 C.ar    0  <0>0        0.0040
     12  C9        -0.4270   30.6810   54.6040 C.3     0  <0>0        0.1030
     13  C10       -1.5740   30.2670   53.6780 C.3     0  <0>0        0.1484
     14  C11       -1.2980   28.8950   53.1190 C.ar    0  <0>0        0.0056
     15  C16       -0.5290   27.9980   53.8360 C.ar    0  <0>0       -0.0010
     16  C15       -0.2810   26.7370   53.3270 C.ar    0  <0>0        0.0111
     17  C14       -0.7920   26.3780   52.0930 C.ar    0  <0>0        0.0577
     18  C13       -1.5570   27.2780   51.3720 C.ar    0  <0>0        0.0111
     19 Cl         -0.4750   24.7970   51.4480 Cl      0  <0>0       -0.0822
     20  C12       -1.8090   28.5360   51.8850 C.ar    0  <0>0       -0.0010
     21  O1        -2.7970   30.2430   54.4180 O.3     0  <0>0       -0.3786
     22  H20       -3.2180   29.3740   54.4530 H       0  <0>0        0.2108
@<TRIPOS>BOND
     1    18    20   ar
     2    18    17   ar
     3    19    17    1
     4    20    14   ar
     5    17    16   ar
     6    14    13    1
     7    14    15   ar
     8    16    15   ar
     9    13    21    1
    10    13    12    1
    11    21    22    1
    12    12     1    1
    13     2     1    1
    14     1     3    1
    15     3     4    1
    16     3     7    1
    17     4     5    1
    18    11     7   ar
    19    11    10   ar
    20     6     5    1
    21     7     8   ar
    22    10     9   ar
    23     9     8   ar
