@<TRIPOS>MOLECULE
ZINC22452220_replica-1.pdb
 25 27 0 0 0
SMALL
GASTEIGER

@<TRIPOS>ATOM
      1  C1        -0.8320   28.7860   57.9850 C.3     0  <0>0        0.0621
      2  C2        -0.2060   29.8940   57.1780 C.2     0  <0>0        0.0987
      3  C3        -0.6660   30.1650   55.9220 C.3     0  <0>0        0.1292
      4  C4        -0.0650   31.2020   55.1880 C.2     0  <0>0        0.2351
      5  O1        -0.4510   31.4730   54.0630 O.2     0  <0>0       -0.2742
      6  N1         0.9480   31.8950   55.7520 N.am    0  <0>0       -0.2469
      7  H1         1.4320   32.7110   55.1970 H       0  <0>0        0.1585
      8  C5         1.3640   31.5800   57.0080 C.2     0  <0>0        0.2432
      9  N2         0.7990   30.6020   57.6880 N.2     0  <0>0       -0.3812
     10  N3         2.3910   32.2860   57.5740 N.pl3   0  <0>0       -0.2715
     11  C6         2.0480   33.7090   57.6940 C.3     0  <0>0        0.0943
     12  C7         3.2670   34.4880   58.1920 C.3     0  <0>0        0.0199
     13  C8         3.7020   33.9330   59.5500 C.3     0  <0>0        0.0034
     14  C9         4.0070   32.4390   59.4090 C.3     0  <0>0        0.0199
     15  C10        2.7670   31.7180   58.8750 C.3     0  <0>0        0.0943
     16  C11        4.3850   31.8610   60.7740 C.3     0  <0>0        0.0018
     17  C12        2.9040   35.9680   58.3370 C.3     0  <0>0        0.0018
     18  C13       -1.7990   29.3650   55.3320 C.3     0  <0>0        0.0431
     19  C14       -1.2540   28.3960   54.3140 C.ar    0  <0>0       -0.0107
     20  C19       -1.6330   28.5000   52.9880 C.ar    0  <0>0        0.0537
     21  C18       -1.1310   27.6100   52.0550 C.ar    0  <0>0        0.0111
     22 Cl         -2.7360   29.7460   52.4950 Cl      0  <0>0       -0.0826
     23  C17       -0.2530   26.6190   52.4480 C.ar    0  <0>0        0.0008
     24  C16        0.1240   26.5150   53.7740 C.ar    0  <0>0       -0.0003
     25  C15       -0.3720   27.4070   54.7060 C.ar    0  <0>0       -0.0034
@<TRIPOS>BOND
     1    21    23   ar
     2    21    20   ar
     3    23    24   ar
     4    22    20    1
     5    20    19   ar
     6    24    25   ar
     7     5     4    2
     8    19    25   ar
     9    19    18    1
    10     4     6   am
    11     4     3    1
    12     7     6    1
    13    18     3    1
    14     6     8    1
    15     3     2    1
    16     8    10    1
    17     8     9    2
    18     2     9    2
    19     2     1    1
    20    10    11    1
    21    10    15    1
    22    11    12    1
    23    12    17    1
    24    12    13    1
    25    15    14    1
    26    14    13    1
    27    14    16    1
