@<TRIPOS>MOLECULE
ZINC52250279_replica-1.pdb
 20 20 0 0 0
SMALL
GASTEIGER

@<TRIPOS>ATOM
      1  C7         8.9510   35.2570   58.1740 C.3     0  <0>0        0.0982
      2  C8         9.9660   34.8930   59.2610 C.3     0  <0>0        0.0275
      3  C9         9.5250   35.5030   60.5940 C.3     0  <0>0        0.0024
      4  C10        9.4470   37.0240   60.4580 C.3     0  <0>0        0.0002
      5  C11        8.4330   37.3880   59.3710 C.3     0  <0>0        0.0023
      6  C12        8.8720   36.7790   58.0380 C.3     0  <0>0        0.0252
      7  C3         7.5750   34.7080   58.5570 C.3     0  <0>0        0.1235
      8  C2         6.9020   34.1090   57.3190 C.3     0  <0>0        0.0135
      9  C1         5.5670   33.4790   57.7190 C.3     0  <0>0        0.0007
     10  C4         7.7340   33.6400   59.6080 C.2     0  <0>0        0.3187
     11  O1         7.1760   33.7550   60.6740 O.2     0  <0>0       -0.2500
     12  O2         8.4940   32.5630   59.3610 O.3     0  <0>0       -0.4484
     13  C5         7.9290   31.2860   59.6640 C.3     0  <0>0        0.2086
     14  C6         7.8030   30.4660   58.3780 C.3     0  <0>0        0.0513
     15  O3         9.3610   34.6890   56.9290 O.3     0  <0>0       -0.3862
     16  H30        8.6360   34.5490   56.3030 H       0  <0>0        0.2103
     17  C13        7.8580   37.1430   56.9530 C.3     0  <0>0        0.0022
     18  C14        6.4440   36.8410   57.4540 C.3     0  <0>0        0.0001
     19  C15        7.9750   38.6320   56.6230 C.3     0  <0>0        0.0001
     20  C16        8.1400   36.3180   55.6950 C.3     0  <0>0        0.0001
@<TRIPOS>BOND
     1    20    17    1
     2    16    15    1
     3    19    17    1
     4    15     1    1
     5    17    18    1
     6    17     6    1
     7     8     9    1
     8     8     7    1
     9     6     1    1
    10     6     5    1
    11     1     7    1
    12     1     2    1
    13    14    13    1
    14     7    10    1
    15     2     3    1
    16    12    10    1
    17    12    13    1
    18     5     4    1
    19    10    11    2
    20     4     3    1
