@<TRIPOS>MOLECULE
ZINC59227460_replica-1.pdb
 29 32 0 0 0
SMALL
GASTEIGER

@<TRIPOS>ATOM
      1  C9         9.8940   34.2580   60.6450 C.2     0  <0>0        0.1323
      2  C10        9.7050   35.6140   60.3570 C.2     0  <0>0        0.0325
      3  C11        8.6450   36.0010   59.5870 C.2     0  <0>0        0.0648
      4  C12        7.7730   35.0110   59.1070 C.3     0  <0>0        0.1324
      5  C13        6.6070   35.0380   58.3080 C.2     0  <0>0        0.0668
      6  N1         6.1770   33.8190   58.1570 N.2     0  <0>0       -0.1799
      7  N2         7.0210   32.9320   58.8370 N.pl3   0  <0>0       -0.1661
      8  C14        8.0180   33.6620   59.4330 C.2     0  <0>0        0.1916
      9  N3         9.0650   33.3360   60.1790 N.2     0  <0>0       -0.3888
     10  C21        5.9670   36.2740   57.7260 C.3     0  <0>0        0.0497
     11  C6        11.0460   33.8450   61.4800 C.ar    0  <0>0        0.0298
     12  C5        12.2050   34.6210   61.5030 C.ar    0  <0>0        0.0057
     13  C4        13.2750   34.2340   62.2810 C.ar    0  <0>0        0.0370
     14  C3        13.2010   33.0740   63.0410 C.ar    0  <0>0        0.1386
     15  C8        12.0500   32.2960   63.0150 C.ar    0  <0>0        0.0370
     16  C7        10.9740   32.6810   62.2430 C.ar    0  <0>0        0.0057
     17  O1        14.2570   32.6950   63.8060 O.3     0  <0>0       -0.4755
     18  C2        15.4760   33.4200   63.6330 C.3     0  <0>0        0.2055
     19  C1        15.9220   33.9970   64.9780 C.3     0  <0>0        0.0512
     20  C22        8.4160   37.4540   59.2620 C.3     0  <0>0        0.4158
     21  F1         7.1570   37.8440   59.7280 F       0  <0>0       -0.1661
     22  F2         9.4030   38.2310   59.8780 F       0  <0>0       -0.1661
     23  F3         8.4770   37.6380   57.8760 F       0  <0>0       -0.1661
     24  C15        6.8720   31.5410   58.8990 C.ar    0  <0>0        0.0762
     25  C20        7.3140   30.7460   57.8490 C.ar    0  <0>0        0.0168
     26  C19        7.1710   29.3750   57.9150 C.ar    0  <0>0        0.0013
     27  C18        6.5770   28.7920   59.0200 C.ar    0  <0>0        0.0001
     28  C17        6.1300   29.5810   60.0640 C.ar    0  <0>0        0.0013
     29  C16        6.2760   30.9530   60.0070 C.ar    0  <0>0        0.0168
@<TRIPOS>BOND
     1    10     5    1
     2    25    26   ar
     3    25    24   ar
     4    23    20    1
     5    26    27   ar
     6     6     5    2
     7     6     7    1
     8     5     4    1
     9     7    24    1
    10     7     8    1
    11    24    29   ar
    12    27    28   ar
    13     4     8    1
    14     4     3    1
    15    20     3    1
    16    20    21    1
    17    20    22    1
    18     8     9    2
    19     3     2    2
    20    29    28   ar
    21     9     1    2
    22     2     1    1
    23     1    11    1
    24    11    12   ar
    25    11    16   ar
    26    12    13   ar
    27    16    15   ar
    28    13    14   ar
    29    15    14   ar
    30    14    17    1
    31    18    17    1
    32    18    19    1
