@<TRIPOS>MOLECULE
ZINC01172050_replica-1.pdb
 27 28 0 0 0
SMALL
GASTEIGER

@<TRIPOS>ATOM
      1  C11        8.9920   35.8360   59.7720 C.2     0  <0>0        0.2494
      2  O2         8.0960   36.5760   60.1290 O.2     0  <0>0       -0.2698
      3  N1         8.9910   35.3320   58.5220 N.am    0  <0>0       -0.2784
      4  H14        9.7400   34.7990   58.2130 H       0  <0>0        0.1551
      5  C12        7.9110   35.5780   57.6700 C.2     0  <0>0        0.1086
      6  C13        6.7840   34.8340   57.7720 C.3     0  <0>0        0.0742
      7  C14        5.7060   34.9910   56.7840 C.ar    0  <0>0       -0.0163
      8  C19        5.7250   34.2470   55.5990 C.ar    0  <0>0       -0.0039
      9  C18        4.7070   34.3970   54.6810 C.ar    0  <0>0       -0.0003
     10  C17        3.6750   35.2870   54.9240 C.ar    0  <0>0       -0.0000
     11  C16        3.6530   36.0300   56.0910 C.ar    0  <0>0       -0.0003
     12  C15        4.6590   35.8880   57.0220 C.ar    0  <0>0       -0.0039
     13  C20        7.9970   36.6440   56.6630 C.2     0  <0>0        0.3512
     14  O3         8.4740   36.4110   55.5700 O.2     0  <0>0       -0.2438
     15  O4         7.5460   37.8820   56.9520 O.3     0  <0>0       -0.4407
     16  C21        8.5030   38.8240   57.4410 C.3     0  <0>0        0.2560
     17  C8        10.0800   35.4890   60.7060 C.ar    0  <0>0        0.0539
     18  C7        10.6070   36.4620   61.5600 C.ar    0  <0>0        0.0076
     19  C6        11.6220   36.1350   62.4300 C.ar    0  <0>0        0.0370
     20  C5        12.1230   34.8390   62.4620 C.ar    0  <0>0        0.1386
     21  C10       11.6040   33.8690   61.6110 C.ar    0  <0>0        0.0370
     22  C9        10.5860   34.1870   60.7400 C.ar    0  <0>0        0.0076
     23  O1        13.1230   34.5200   63.3220 O.3     0  <0>0       -0.4755
     24  C4        14.3640   34.1060   62.7490 C.3     0  <0>0        0.2053
     25  C2        14.9360   32.9410   63.5590 C.3     0  <0>0        0.0438
     26  C1        15.4520   33.4580   64.9030 C.3     0  <0>0        0.0038
     27  C3        13.8410   31.9000   63.7990 C.3     0  <0>0        0.0038
@<TRIPOS>BOND
     1     9    10   ar
     2     9     8   ar
     3    10    11   ar
     4    14    13    2
     5     8     7   ar
     6    11    12   ar
     7    13    15    1
     8    13     5    1
     9     7    12   ar
    10     7     6    1
    11    15    16    1
    12     5     6    1
    13     5     3    2
    14     4     3    1
    15     3     1   am
    16     1     2    2
    17     1    17    1
    18    17    22   ar
    19    17    18   ar
    20    22    21   ar
    21    18    19   ar
    22    21    20   ar
    23    19    20   ar
    24    20    23    1
    25    24    23    1
    26    24    25    1
    27    25    27    1
    28    25    26    1
