@<TRIPOS>MOLECULE
ZINC33289976_replica-1.pdb
 25 27 0 0 0
SMALL
GASTEIGER

@<TRIPOS>ATOM
      1  S1         0.1270   28.5050   57.3520 S.O2    0  <0>0        0.0738
      2  O1         1.0170   27.4960   57.8110 O.2     0  <0>0       -0.1499
      3  O2        -1.2790   28.3090   57.2880 O.2     0  <0>0       -0.1499
      4  N1         0.6180   28.9070   55.8220 N.pl3   0  <0>0       -0.2145
      5  H7         1.2960   29.7600   55.6680 H       0  <0>0        0.1737
      6  C5         0.1710   28.1640   54.7260 C.ar    0  <0>0        0.0709
      7  C4         0.6190   26.8620   54.5400 C.ar    0  <0>0        0.0160
      8  C3         0.1750   26.1290   53.4570 C.ar    0  <0>0       -0.0029
      9  C2        -0.7120   26.6900   52.5570 C.ar    0  <0>0       -0.0213
     10  C1        -1.1940   25.8870   51.3760 C.3     0  <0>0        0.0310
     11  C7        -1.1610   27.9860   52.7390 C.ar    0  <0>0        0.0037
     12  C6        -0.7260   28.7220   53.8240 C.ar    0  <0>0        0.0488
     13 Br         -1.3450   30.4910   54.0760 Br      0  <0>0       -0.0477
     14  C8         0.3930   29.9160   58.3730 C.ar    0  <0>0        0.1277
     15  C11        0.1290   29.8600   59.7040 C.ar    0  <0>0        0.0266
     16  S2         0.5610   31.5070   60.2400 S.2     0  <0>0       -0.0868
     17  C12       -0.3950   28.7050   60.5180 C.3     0  <0>0        0.0396
     18  C10        1.0650   32.1640   58.6590 C.ar    0  <0>0        0.0660
     19  C9         0.8660   31.0890   57.8300 C.ar    0  <0>0        0.0299
     20  C13        1.5590   33.5090   58.3290 C.2     0  <0>0        0.1625
     21  S3         0.8400   34.7550   57.2650 S.3     0  <0>0       -0.0747
     22  C15        2.1110   35.9920   57.4870 C.3     0  <0>0        0.1188
     23  C14        2.9470   35.3450   58.3400 C.2     0  <0>0        0.0990
     24  N2         2.6600   34.1280   58.7420 N.2     0  <0>0       -0.4029
     25  C16        4.2030   36.0220   58.8230 C.3     0  <0>0        0.0624
@<TRIPOS>BOND
     1    10     9    1
     2     9    11   ar
     3     9     8   ar
     4    11    12   ar
     5     8     7   ar
     6    12    13    1
     7    12     6   ar
     8     7     6   ar
     9     6     4    1
    10     5     4    1
    11     4     1    1
    12    21    22    1
    13    21    20    1
    14     3     1    2
    15     1     2    2
    16     1    14    1
    17    22    23    1
    18    19    14   ar
    19    19    18   ar
    20    20    18    1
    21    20    24    2
    22    23    24    2
    23    23    25    1
    24    14    15   ar
    25    18    16   ar
    26    15    16   ar
    27    15    17    1
