@<TRIPOS>MOLECULE
ZINC32127628_replica-1.pdb
 28 30 0 0 0
SMALL
GASTEIGER

@<TRIPOS>ATOM
      1  N2         1.1610   32.3660   55.8760 N.am    0  <0>0       -0.1884
      2  C8         2.3660   32.8080   56.3960 C.3     0  <0>0        0.2204
      3  N1         3.5070   32.1670   56.4900 N.pl3   0  <0>0       -0.3083
      4  C5         4.6140   32.7270   57.0260 C.ar    0  <0>0        0.0532
      5  H10        3.5410   31.1340   56.1110 H       0  <0>0        0.1491
      6  C4         4.4640   34.0550   57.4870 C.ar    0  <0>0        0.0445
      7  C6         5.8950   32.1480   57.1840 C.ar    0  <0>0        0.0293
      8  C3         5.4950   34.7650   58.0500 C.ar    0  <0>0        0.0453
      9  S1         2.7630   34.3970   57.1100 S.3     0  <0>0       -0.0713
     10  C2         6.7400   34.1690   58.1910 C.ar    0  <0>0        0.1497
     11  C7         6.9210   32.8600   57.7520 C.ar    0  <0>0        0.0928
     12 Cl          8.4760   32.1120   57.9280 Cl      0  <0>0       -0.0790
     13  O1         7.7720   34.8550   58.7510 O.3     0  <0>0       -0.4706
     14  C1         8.4710   35.7750   57.9100 C.3     0  <0>0        0.2525
     15  C9         0.6880   31.1490   56.2110 C.2     0  <0>0        0.1589
     16  S2         0.2680   30.8110   57.8360 S.2     0  <0>0       -0.0167
     17  N3         0.5460   30.1980   55.2670 N.am    0  <0>0       -0.2624
     18  C10        0.0730   28.9810   55.6020 C.2     0  <0>0        0.2508
     19  H6         0.8160   30.4150   54.2220 H       0  <0>0        0.1569
     20  O2        -0.2250   28.7410   56.7560 O.2     0  <0>0       -0.2698
     21  C11       -0.0820   27.9390   54.5670 C.ar    0  <0>0        0.0546
     22  C16       -0.7970   28.2120   53.3990 C.ar    0  <0>0        0.0168
     23  C15       -0.9390   27.2350   52.4360 C.ar    0  <0>0        0.0683
     24  C14       -0.3740   25.9830   52.6260 C.ar    0  <0>0        0.0682
     25 Cl         -1.8270   27.5720   50.9830 Cl      0  <0>0       -0.0814
     26  C13        0.3360   25.7070   53.7830 C.ar    0  <0>0        0.0124
     27 Cl         -0.5580   24.7570   51.4100 Cl      0  <0>0       -0.0814
     28  C12        0.4900   26.6770   54.7500 C.ar    0  <0>0        0.0054
@<TRIPOS>BOND
     1    25    23    1
     2    27    24    1
     3    23    24   ar
     4    23    22   ar
     5    24    26   ar
     6    22    21   ar
     7    26    28   ar
     8    19    17    1
     9    21    28   ar
    10    21    18    1
    11    17    18   am
    12    17    15    1
    13    18    20    2
    14     1    15    1
    15     1     2    1
    16     5     3    1
    17    15    16    2
    18     2     3    1
    19     2     9    1
    20     3     4    1
    21     4     7   ar
    22     4     6   ar
    23     9     6    1
    24     7    11   ar
    25     6     8   ar
    26    11    12    1
    27    11    10   ar
    28    14    13    1
    29     8    10   ar
    30    10    13    1
