@<TRIPOS>MOLECULE
ZINC51392995_replica-1.pdb
 21 23 0 0 0
SMALL
GASTEIGER

@<TRIPOS>ATOM
      1  C1         1.6610   34.5530   59.4000 C.3     0  <0>0        0.1351
      2  N1         2.6380   34.6800   58.3160 N.ar    0  <0>0       -0.2779
      3  C2         3.8630   35.3390   58.3940 C.ar    0  <0>0        0.0797
      4  C3         4.5100   36.0250   59.4110 C.ar    0  <0>0        0.0185
      5  C4         5.7510   36.5860   59.1810 C.ar    0  <0>0       -0.0015
      6  C5         6.3520   36.4640   57.9390 C.ar    0  <0>0       -0.0062
      7  C6         5.7150   35.7820   56.9210 C.ar    0  <0>0        0.0157
      8  C7         4.4690   35.2150   57.1430 C.ar    0  <0>0        0.0795
      9  N2         3.5940   34.4850   56.3420 N.ar    0  <0>0       -0.2779
     10  C8         2.5090   34.1740   57.0750 C.ar    0  <0>0        0.3316
     11  O1         1.5530   33.5350   56.6750 O.2     0  <0>0       -0.2463
     12  C9         3.8200   34.1160   54.9430 C.3     0  <0>0        0.1351
     13  C10        7.7060   37.0790   57.6980 C.3     0  <0>0        0.1036
     14 Br          8.3270   36.6080   55.8920 Br      0  <0>0       -0.0719
     15  C11        8.6840   36.5570   58.7180 C.ar    0  <0>0        0.0197
     16  C16        9.0370   37.3400   59.8030 C.ar    0  <0>0        0.1372
     17  C15        9.9320   36.8560   60.7430 C.ar    0  <0>0        0.0293
     18  F1         8.5030   38.5720   59.9500 F       0  <0>0       -0.2045
     19  C14       10.4810   35.5970   60.5900 C.ar    0  <0>0        0.0023
     20  C13       10.1320   34.8180   59.5020 C.ar    0  <0>0       -0.0001
     21  C12        9.2350   35.2970   58.5670 C.ar    0  <0>0       -0.0009
@<TRIPOS>BOND
     1    12     9    1
     2    14    13    1
     3     9    10   ar
     4     9     8   ar
     5    11    10    2
     6     7     8   ar
     7     7     6   ar
     8    10     2   ar
     9     8     3   ar
    10    13     6    1
    11    13    15    1
    12     6     5   ar
    13     2     3   ar
    14     2     1    1
    15     3     4   ar
    16    21    15   ar
    17    21    20   ar
    18    15    16   ar
    19     5     4   ar
    20    20    19   ar
    21    16    18    1
    22    16    17   ar
    23    19    17   ar
