@<TRIPOS>MOLECULE
ZINC34912878_replica-1.pdb
 28 31 0 0 0
SMALL
GASTEIGER

@<TRIPOS>ATOM
      1  C8        -0.2680   29.0360   57.8530 C.2     0  <0>0        0.1481
      2  C9         0.1690   29.5370   56.6440 C.3     0  <0>0        0.2089
      3  N1         0.5740   30.8240   56.8730 N.pl3   0  <0>0       -0.2408
      4  C10        1.0900   31.7870   56.0500 C.2     0  <0>0        0.0687
      5  C11        1.4150   33.0020   56.5340 C.2     0  <0>0        0.0121
      6  C12        1.2280   33.2970   57.8970 C.2     0  <0>0       -0.0167
      7  C13        0.7170   32.3510   58.7280 C.2     0  <0>0        0.0438
      8  C14        0.3800   31.0830   58.2090 C.2     0  <0>0        0.1879
      9  N2        -0.1300   30.0020   58.7790 N.2     0  <0>0       -0.3875
     10  C15        1.5940   34.6570   58.4330 C.3     0  <0>0        0.0312
     11  N3         0.1910   28.8630   55.4240 N.am    0  <0>0       -0.2807
     12  C16       -0.9480   28.6990   54.7230 C.2     0  <0>0        0.2494
     13  O1        -1.9790   29.2150   55.1090 O.2     0  <0>0       -0.2700
     14  H14        1.0280   28.5120   55.0800 H       0  <0>0        0.1516
     15  C17       -0.9440   27.8920   53.4870 C.ar    0  <0>0        0.0808
     16  C22       -1.5720   28.3720   52.3330 C.ar    0  <0>0        0.1444
     17  C21       -1.5570   27.6130   51.1760 C.ar    0  <0>0        0.0298
     18  F1        -2.1870   29.5750   52.3460 F       0  <0>0       -0.2040
     19  C20       -0.9350   26.3790   51.1640 C.ar    0  <0>0        0.0023
     20  C19       -0.3170   25.8970   52.3060 C.ar    0  <0>0        0.0003
     21  C18       -0.3170   26.6450   53.4640 C.ar    0  <0>0        0.0068
     22  C5        -0.7990   27.6730   58.0900 C.ar    0  <0>0        0.0288
     23  C4        -2.1690   27.4780   58.2700 C.ar    0  <0>0        0.0020
     24  C3        -2.6590   26.2070   58.4890 C.ar    0  <0>0       -0.0042
     25  C2        -1.7940   25.1270   58.5300 C.ar    0  <0>0       -0.0218
     26  C1        -2.3350   23.7420   58.7710 C.3     0  <0>0        0.0310
     27  C7        -0.4350   25.3160   58.3580 C.ar    0  <0>0       -0.0042
     28  C6         0.0660   26.5810   58.1330 C.ar    0  <0>0        0.0020
@<TRIPOS>BOND
     1    19    17   ar
     2    19    20   ar
     3    17    16   ar
     4    20    21   ar
     5    16    18    1
     6    16    15   ar
     7    21    15   ar
     8    15    12    1
     9    12    13    2
    10    12    11   am
    11    14    11    1
    12    11     2    1
    13     4     5    2
    14     4     3    1
    15     5     6    1
    16     2     3    1
    17     2     1    1
    18     3     8    1
    19     1    22    1
    20     1     9    2
    21     6    10    1
    22     6     7    2
    23    22    28   ar
    24    22    23   ar
    25    28    27   ar
    26     8     7    1
    27     8     9    2
    28    23    24   ar
    29    27    25   ar
    30    24    25   ar
    31    25    26    1
