@<TRIPOS>MOLECULE
ZINC36636289_replica-1.pdb
 25 27 0 0 0
SMALL
GASTEIGER

@<TRIPOS>ATOM
      1  S1        -1.8630   29.7570   56.1390 S.O2    0  <0>0        0.0765
      2  O2        -2.7160   28.6210   56.0880 O.2     0  <0>0       -0.1498
      3  O3        -2.3470   31.0810   55.9650 O.2     0  <0>0       -0.1498
      4  C3        -1.0620   29.7150   57.7080 C.ar    0  <0>0        0.1598
      5  C2         0.0780   30.4740   57.9260 C.ar    0  <0>0        0.1687
      6  C7         0.7100   30.4340   59.1610 C.ar    0  <0>0        0.1034
      7  C6         0.1940   29.6480   60.1740 C.ar    0  <0>0        0.0712
      8 Cl          2.1420   31.3780   59.4350 Cl      0  <0>0       -0.0782
      9  C5        -0.9430   28.8910   59.9530 C.ar    0  <0>0        0.0138
     10 Cl          0.9780   29.6020   61.7230 Cl      0  <0>0       -0.0813
     11  C4        -1.5700   28.9250   58.7210 C.ar    0  <0>0        0.0242
     12  O1         0.5790   31.2510   56.9290 O.3     0  <0>0       -0.4692
     13  C1         0.3590   32.6600   57.0310 C.3     0  <0>0        0.2526
     14  N1        -0.6960   29.5230   54.9880 N.pl3   0  <0>0       -0.2149
     15  H6        -0.2400   30.2850   54.5960 H       0  <0>0        0.1737
     16  C8        -0.3680   28.2310   54.5810 C.ar    0  <0>0        0.0647
     17  C13       -0.8020   27.7460   53.3280 C.ar    0  <0>0        0.0146
     18  C12       -0.4520   26.4320   52.9350 C.ar    0  <0>0        0.0012
     19  C14       -1.5680   28.5440   52.4650 C.ar    0  <0>0        0.0013
     20  C11        0.3110   25.6300   53.8010 C.ar    0  <0>0        0.0001
     21  C17       -0.8790   25.9510   51.6850 C.ar    0  <0>0        0.0000
     22  C10        0.7110   26.1210   55.0060 C.ar    0  <0>0        0.0013
     23  C9         0.3790   27.4130   55.4020 C.ar    0  <0>0        0.0159
     24  C16       -1.6300   26.7480   50.8780 C.ar    0  <0>0        0.0000
     25  C15       -1.9700   28.0430   51.2640 C.ar    0  <0>0        0.0000
@<TRIPOS>BOND
     1    24    25   ar
     2    24    21   ar
     3    25    19   ar
     4    21    18   ar
     5    19    17   ar
     6    18    17   ar
     7    18    20   ar
     8    17    16   ar
     9    20    22   ar
    10    16    14    1
    11    16    23   ar
    12    15    14    1
    13    14     1    1
    14    22    23   ar
    15     3     1    2
    16     2     1    2
    17     1     4    1
    18    12    13    1
    19    12     5    1
    20     4     5   ar
    21     4    11   ar
    22     5     6   ar
    23    11     9   ar
    24     6     8    1
    25     6     7   ar
    26     9     7   ar
    27     7    10    1
