@<TRIPOS>MOLECULE
ZINC21515934_replica-1.pdb
 21 22 0 0 0
SMALL
GASTEIGER

@<TRIPOS>ATOM
      1  C7        -0.2160   26.9700   53.4260 C.ar    0  <0>0        0.0566
      2  C8        -0.3730   26.1340   52.3270 C.ar    0  <0>0        0.0155
      3  C9        -1.1870   26.5200   51.2810 C.ar    0  <0>0        0.0013
      4  C10       -1.8450   27.7350   51.3260 C.ar    0  <0>0        0.0013
      5  C11       -1.6910   28.5690   52.4170 C.ar    0  <0>0        0.0142
      6  C12       -0.8820   28.1870   53.4710 C.ar    0  <0>0        0.0447
      7  N1         0.6070   26.5820   54.4870 N.pl3   0  <0>0       -0.3331
      8  H14        1.5310   26.8790   54.5160 H       0  <0>0        0.1468
      9  C2         0.0770   25.7300   55.5530 C.3     0  <0>0        0.0691
     10  C1         0.6760   24.3270   55.4290 C.3     0  <0>0        0.0212
     11  C3         0.4470   26.3240   56.9130 C.3     0  <0>0        0.0195
     12  C4        -0.3110   25.5830   58.0170 C.3     0  <0>0        0.0016
     13  C5         0.3990   25.7980   59.3560 C.3     0  <0>0        0.0001
     14  C6        -1.7400   26.1210   58.1050 C.3     0  <0>0        0.0001
     15  N2        -0.7310   29.0280   54.5770 N.pl3   0  <0>0       -0.3749
     16  C17       -0.6470   30.4210   54.1240 C.3     0  <0>0        0.0726
     17  C16       -0.4010   31.3380   55.3240 C.3     0  <0>0        0.0198
     18  C15       -1.5570   31.1920   56.3170 C.3     0  <0>0        0.0034
     19  C14       -1.6820   29.7210   56.7270 C.3     0  <0>0        0.0198
     20  C13       -1.8820   28.8640   55.4750 C.3     0  <0>0        0.0726
     21  H29        0.1150   28.7840   55.0710 H       0  <0>0        0.1277
@<TRIPOS>BOND
     1     3     4   ar
     2     3     2   ar
     3     4     5   ar
     4     2     1   ar
     5     5     6   ar
     6     1     6   ar
     7     1     7    1
     8     6    15    1
     9    16    15    1
    10    16    17    1
    11     7     8    1
    12     7     9    1
    13    15    21    1
    14    15    20    1
    15    17    18    1
    16    10     9    1
    17    20    19    1
    18     9    11    1
    19    18    19    1
    20    11    12    1
    21    12    14    1
    22    12    13    1
