@<TRIPOS>MOLECULE
ZINC41571356_replica-1.pdb
 22 24 0 0 0
SMALL
GASTEIGER

@<TRIPOS>ATOM
      1  O1        -0.8570   29.7480   54.3710 O.3     0  <0>0       -0.4736
      2  C10       -0.4300   28.4580   54.3680 C.ar    0  <0>0        0.1385
      3  C4        -0.7040   27.6220   53.2670 C.ar    0  <0>0        0.0340
      4  C3        -1.4170   28.0940   52.1530 C.ar    0  <0>0        0.0030
      5  C5        -0.2510   26.2800   53.2860 C.ar    0  <0>0        0.0029
      6  C2        -1.6630   27.2580   51.1080 C.ar    0  <0>0        0.0001
      7  C1        -1.2180   25.9380   51.1250 C.ar    0  <0>0        0.0000
      8  C6        -0.5240   25.4460   52.1880 C.ar    0  <0>0        0.0001
      9  C7         0.4630   25.8090   54.4010 C.ar    0  <0>0        0.0002
     10  C8         0.7100   26.6430   55.4480 C.ar    0  <0>0        0.0031
     11  C9         0.2670   27.9630   55.4350 C.ar    0  <0>0        0.0369
     12  C11        0.0770   30.7390   54.8030 C.3     0  <0>0        0.2265
     13  C12       -0.5470   31.5740   55.9240 C.3     0  <0>0        0.1351
     14  N1         0.0740   32.9010   55.9480 N.pl3   0  <0>0       -0.3296
     15  H12        0.2280   33.3800   55.1200 H       0  <0>0        0.1469
     16  C13        0.4470   33.4740   57.1660 C.ar    0  <0>0        0.0470
     17  C18        1.0870   34.7060   57.1870 C.ar    0  <0>0        0.0439
     18  C17        1.4490   35.2730   58.3970 C.ar    0  <0>0        0.1414
     19  C16        1.1830   34.6090   59.5810 C.ar    0  <0>0        0.0297
     20  F1         2.0680   36.4740   58.4200 F       0  <0>0       -0.2041
     21  C15        0.5510   33.3800   59.5620 C.ar    0  <0>0        0.0036
     22  C14        0.1820   32.8110   58.3580 C.ar    0  <0>0        0.0144
@<TRIPOS>BOND
     1     6     7   ar
     2     6     4   ar
     3     7     8   ar
     4     4     3   ar
     5     8     5   ar
     6     3     5   ar
     7     3     2   ar
     8     5     9   ar
     9     2     1    1
    10     2    11   ar
    11     1    12    1
    12     9    10   ar
    13    12    13    1
    14    15    14    1
    15    11    10   ar
    16    13    14    1
    17    14    16    1
    18    16    17   ar
    19    16    22   ar
    20    17    18   ar
    21    22    21   ar
    22    18    20    1
    23    18    19   ar
    24    21    19   ar
