@<TRIPOS>MOLECULE
ZINC32675363_replica-1.pdb
 24 25 0 0 0
SMALL
GASTEIGER

@<TRIPOS>ATOM
      1  C11       -0.0790   32.0960   56.7200 C.2     0  <0>0        0.2811
      2  O2         0.9870   31.9820   56.1530 O.2     0  <0>0       -0.2697
      3  N1        -0.2960   33.1410   57.5430 N.am    0  <0>0       -0.2289
      4  H14       -1.2630   33.2450   58.0570 H       0  <0>0        0.1707
      5  C10       -1.1610   31.0690   56.5030 C.3     0  <0>0        0.2907
      6  O1        -0.5910   29.7600   56.5450 O.3     0  <0>0       -0.4656
      7  C7        -0.6030   29.0450   55.3900 C.ar    0  <0>0        0.1393
      8  C6         0.1330   27.8730   55.2900 C.ar    0  <0>0        0.0366
      9  C5         0.1190   27.1480   54.1140 C.ar    0  <0>0       -0.0012
     10  C4        -0.6280   27.5890   53.0370 C.ar    0  <0>0       -0.0223
     11  C9        -1.3630   28.7560   53.1350 C.ar    0  <0>0       -0.0012
     12  C8        -1.3510   29.4840   54.3080 C.ar    0  <0>0        0.0366
     13  C2        -0.6420   26.7950   51.7560 C.3     0  <0>0        0.0224
     14  C1        -0.6490   25.3000   52.0820 C.3     0  <0>0        0.0047
     15  C3        -1.8950   27.1490   50.9520 C.3     0  <0>0        0.0047
     16  N2         0.7100   34.0950   57.7440 N.3     0  <0>0       -0.1265
     17  C12        1.0160   34.4710   58.9470 C.3     0  <0>0        0.1378
     18  C13        0.6880   33.6060   60.0960 C.ar    0  <0>0       -0.0029
     19  C18       -0.0990   34.0970   61.1410 C.ar    0  <0>0       -0.0019
     20  C17       -0.4020   33.2840   62.2120 C.ar    0  <0>0        0.0111
     21  C16        0.0730   31.9830   62.2550 C.ar    0  <0>0        0.0577
     22  C15        0.8550   31.4910   61.2230 C.ar    0  <0>0        0.0111
     23 Cl         -0.3130   30.9660   63.6070 Cl      0  <0>0       -0.0822
     24  C14        1.1590   32.2920   60.1420 C.ar    0  <0>0       -0.0019
@<TRIPOS>BOND
     1    15    13    1
     2    13    14    1
     3    13    10    1
     4    10    11   ar
     5    10     9   ar
     6    11    12   ar
     7     9     8   ar
     8    12     7   ar
     9     8     7   ar
    10     7     6    1
    11     2     1    2
    12     5     6    1
    13     5     1    1
    14     1     3   am
    15     3    16    1
    16     3     4    1
    17    16    17    1
    18    17    18    1
    19    18    24   ar
    20    18    19   ar
    21    24    22   ar
    22    19    20   ar
    23    22    21   ar
    24    20    21   ar
    25    21    23    1
