@<TRIPOS>MOLECULE
ZINC61413330_replica-1.pdb
 18 20 0 0 0
SMALL
GASTEIGER

@<TRIPOS>ATOM
      1  C1        10.6600   34.7510   60.1490 C.ar    0  <0>0        0.0048
      2  C2         9.8870   34.8940   59.0430 C.ar    0  <0>0        0.0207
      3  C3         9.1290   36.0660   58.8590 C.ar    0  <0>0        0.0989
      4  C4         9.1770   37.0930   59.8360 C.ar    0  <0>0        0.0990
      5  C5         9.9840   36.9270   60.9730 C.ar    0  <0>0        0.0238
      6  C6        10.7180   35.7620   61.1240 C.ar    0  <0>0        0.0411
      7  N1         8.4560   38.2060   59.6610 N.ar    0  <0>0       -0.2407
      8  C12        7.7100   38.3350   58.5880 C.ar    0  <0>0        0.1195
      9  C13        7.6620   37.3240   57.6250 C.ar    0  <0>0        0.1195
     10  N2         8.3620   36.2220   57.7740 N.ar    0  <0>0       -0.2407
     11  C7        11.5680   35.5820   62.3220 C.2     0  <0>0        0.2016
     12  O1        11.7730   36.5200   63.0680 O.2     0  <0>0       -0.2860
     13  C8        12.1630   34.2760   62.6060 C.ar    0  <0>0        0.0688
     14  S1        11.3560   32.7200   62.9320 S.2     0  <0>0       -0.0769
     15  C11       12.7150   31.7560   63.1490 C.ar    0  <0>0        0.0639
     16  C10       13.7600   32.6100   62.9830 C.ar    0  <0>0        0.0138
     17 Br         12.7760   29.9070   63.5420 Br      0  <0>0       -0.0419
     18  C9        13.5060   33.9280   62.7000 C.ar    0  <0>0        0.0107
@<TRIPOS>BOND
     1     9    10   ar
     2     9     8   ar
     3    10     3   ar
     4     8     7   ar
     5     3     2   ar
     6     3     4   ar
     7     2     1   ar
     8     7     4   ar
     9     4     5   ar
    10     1     6   ar
    11     5     6   ar
    12     6    11    1
    13    11    13    1
    14    11    12    2
    15    13    18   ar
    16    13    14   ar
    17    18    16   ar
    18    14    15   ar
    19    16    15   ar
    20    15    17    1
