@<TRIPOS>MOLECULE
ZINC36589930_replica-1.pdb
 26 28 0 0 0
SMALL
GASTEIGER

@<TRIPOS>ATOM
      1  C11        6.7970   36.3670   58.4290 C.3     0  <0>0        0.2217
      2  C12        6.2970   36.5290   57.0140 C.3     0  <0>0        0.0355
      3  C13        5.3850   35.4230   56.5800 C.3     0  <0>0        0.0137
      4  C14        3.9950   35.4830   57.1320 C.3     0  <0>0        0.0745
      5  C15        2.9870   35.0350   56.2820 C.2     0  <0>0       -0.0194
      6  C16        1.6670   35.0300   56.6740 C.2     0  <0>0       -0.0041
      7  C17        1.3280   35.4770   57.9390 C.2     0  <0>0        0.0020
      8  C18        2.3090   35.9240   58.7870 C.2     0  <0>0        0.0280
      9  C19        3.6660   35.9400   58.3980 C.2     0  <0>0        0.1158
     10  N1         4.5160   36.4250   59.3230 N.2     0  <0>0       -0.3742
     11  C20        5.7420   36.6690   59.4310 C.2     0  <0>0        0.2715
     12  S1         8.1960   37.4900   58.6910 S.O2    0  <0>0        0.0167
     13  O1         7.7880   38.6090   59.4660 O.2     0  <0>0       -0.1682
     14  O2         8.9120   37.6730   57.4770 O.2     0  <0>0       -0.1682
     15  C8         9.3020   36.6000   59.7350 C.ar    0  <0>0        0.1062
     16  C7         9.7800   35.3640   59.3420 C.ar    0  <0>0        0.0180
     17  C6        10.6480   34.6660   60.1610 C.ar    0  <0>0       -0.0030
     18  C5        11.0390   35.2040   61.3720 C.ar    0  <0>0       -0.0227
     19  C10       10.5570   36.4380   61.7680 C.ar    0  <0>0       -0.0030
     20  C9         9.6920   37.1380   60.9470 C.ar    0  <0>0        0.0180
     21  C2        11.9850   34.4430   62.2650 C.3     0  <0>0        0.0189
     22  C1        11.4160   33.0500   62.5420 C.3     0  <0>0        0.0044
     23  C3        12.1570   35.1970   63.5860 C.3     0  <0>0        0.0044
     24  C4        13.3430   34.3110   61.5730 C.3     0  <0>0        0.0044
     25  O3         6.1420   37.2610   60.5740 O.2     0  <0>0       -0.4854
     26  H23        5.4950   37.2110   61.2920 H       0  <0>0        0.2945
@<TRIPOS>BOND
     1     5     6    2
     2     5     4    1
     3     3     2    1
     4     3     4    1
     5     6     7    1
     6     2     1    1
     7     4     9    1
     8    14    12    2
     9     7     8    2
    10     9     8    1
    11     9    10    2
    12     1    12    1
    13     1    11    1
    14    12    13    2
    15    12    15    1
    16    10    11    2
    17    16    15   ar
    18    16    17   ar
    19    11    25    1
    20    15    20   ar
    21    17    18   ar
    22    25    26    1
    23    20    19   ar
    24    18    19   ar
    25    18    21    1
    26    24    21    1
    27    21    22    1
    28    21    23    1
