@<TRIPOS>MOLECULE
ZINC02711709_replica-1.pdb
 25 27 0 0 0
SMALL
GASTEIGER

@<TRIPOS>ATOM
      1  N1         7.5190   36.2640   58.7590 N.ar    0  <0>0       -0.1836
      2  C7         6.9310   37.6090   58.6390 C.ar    0  <0>0        0.1227
      3  C8         8.0180   38.5260   59.2330 C.ar    0  <0>0        0.1216
      4  N2         9.0930   37.6000   59.6200 N.ar    0  <0>0       -0.2181
      5  C9         8.7540   36.3830   59.3380 C.ar    0  <0>0        0.1915
      6  S1         6.8060   34.8480   58.2800 S.O2    0  <0>0        0.0876
      7  O1         6.7860   33.9980   59.4190 O.2     0  <0>0       -0.1475
      8  O2         7.4280   34.4720   57.0600 O.2     0  <0>0       -0.1475
      9  C6         5.1260   35.2150   57.8970 C.ar    0  <0>0        0.1278
     10  C1         4.7570   35.4780   56.5910 C.ar    0  <0>0        0.0213
     11  C2         3.4390   35.7660   56.2900 C.ar    0  <0>0        0.0128
     12  C3         2.4890   35.7890   57.2960 C.ar    0  <0>0        0.0578
     13  C4         2.8590   35.5250   58.6020 C.ar    0  <0>0        0.0128
     14 Cl          0.8330   36.1500   56.9180 Cl      0  <0>0       -0.0822
     15  C5         4.1770   35.2370   58.9020 C.ar    0  <0>0        0.0213
     16  S2         9.7940   35.0000   59.6680 S.3     0  <0>0       -0.0710
     17  C10       10.8580   35.5640   61.0240 C.3     0  <0>0        0.0914
     18  C11       11.4510   34.3710   61.7280 C.ar    0  <0>0       -0.0100
     19  C16       12.7530   34.4190   62.1920 C.ar    0  <0>0        0.0088
     20  C15       13.2950   33.3260   62.8440 C.ar    0  <0>0        0.0679
     21  C14       12.5390   32.1800   63.0190 C.ar    0  <0>0        0.0682
     22 Cl         14.9270   33.3890   63.4340 Cl      0  <0>0       -0.0814
     23  C13       11.2390   32.1320   62.5490 C.ar    0  <0>0        0.0120
     24 Cl         13.2210   30.8050   63.8300 Cl      0  <0>0       -0.0814
     25  C12       10.6960   33.2260   61.9030 C.ar    0  <0>0       -0.0025
@<TRIPOS>BOND
     1    11    10   ar
     2    11    12   ar
     3    10     9   ar
     4    14    12    1
     5     8     6    2
     6    12    13   ar
     7     9     6    1
     8     9    15   ar
     9     6     1    1
    10     6     7    2
    11    13    15   ar
    12     2     1   ar
    13     2     3   ar
    14     1     5   ar
    15     3     4   ar
    16     5     4   ar
    17     5    16    1
    18    16    17    1
    19    17    18    1
    20    18    25   ar
    21    18    19   ar
    22    25    23   ar
    23    19    20   ar
    24    23    21   ar
    25    20    21   ar
    26    20    22    1
    27    21    24    1
