@<TRIPOS>MOLECULE
ZINC63855658_replica-1.pdb
 24 24 0 0 0
SMALL
GASTEIGER

@<TRIPOS>ATOM
      1  N1        12.9380   33.7310   62.3530 N.am    0  <0>0       -0.3019
      2  C8        12.1520   34.7780   62.6710 C.2     0  <0>0        0.2458
      3  O3        12.2080   35.2660   63.7830 O.2     0  <0>0       -0.2701
      4  H13       12.9490   33.3900   61.4450 H       0  <0>0        0.1497
      5  C9        11.2220   35.3330   61.6680 C.ar    0  <0>0        0.0536
      6  C14       10.6320   36.5840   61.8760 C.ar    0  <0>0        0.0076
      7  C13        9.7690   37.1000   60.9360 C.ar    0  <0>0        0.0371
      8  C12        9.4760   36.3760   59.7860 C.ar    0  <0>0        0.1390
      9  C11       10.0560   35.1300   59.5780 C.ar    0  <0>0        0.0371
     10  C10       10.9250   34.6090   60.5110 C.ar    0  <0>0        0.0076
     11  O4         8.6220   36.8860   58.8630 O.3     0  <0>0       -0.4710
     12  C15        8.5160   36.1870   57.6210 C.3     0  <0>0        0.2278
     13  C16        8.1890   37.1640   56.5210 C.2     0  <0>0       -0.0007
     14  C17        8.3380   38.4500   56.7220 C.2     0  <0>0       -0.0055
     15  C18        7.6930   36.6620   55.1900 C.3     0  <0>0        0.0301
     16  C5        13.7770   33.1070   63.3800 C.3     0  <0>0        0.0831
     17  C4        15.2210   33.5850   63.2170 C.3     0  <0>0        0.0201
     18  C2        15.7670   34.0330   64.5750 C.3     0  <0>0        0.0017
     19  C1        15.8240   32.8330   65.5230 C.3     0  <0>0        0.0001
     20  C3        17.1730   34.6090   64.3950 C.3     0  <0>0        0.0001
     21  C6        13.7230   31.5860   63.2280 C.3     0  <0>0        0.1335
     22  C7        12.4220   31.0710   63.7870 C.2     0  <0>0        0.3665
     23  O1        12.4270   30.2310   64.6710 O.co2   0  <0>0       -0.2456
     24  O2        11.3630   31.4940   63.3550 O.co2   0  <0>0       -0.2456
@<TRIPOS>BOND
     1    15    13    1
     2    13    14    2
     3    13    12    1
     4    12    11    1
     5    11     8    1
     6     9     8   ar
     7     9    10   ar
     8     8     7   ar
     9    10     5   ar
    10     7     6   ar
    11     4     1    1
    12     5     6   ar
    13     5     2    1
    14     1     2   am
    15     1    16    1
    16     2     3    2
    17    17    16    1
    18    17    18    1
    19    21    16    1
    20    21    22    1
    21    24    22   ar
    22    22    23   ar
    23    20    18    1
    24    18    19    1
