@<TRIPOS>MOLECULE
ZINC61691376_replica-1.pdb
 21 21 0 0 0
SMALL
GASTEIGER

@<TRIPOS>ATOM
      1  C7         9.0530   33.5860   59.2240 C.3     0  <0>0        0.1466
      2  C8         8.4450   32.2020   58.9920 C.3     0  <0>0        0.0311
      3  C6         8.2390   34.6210   58.4910 C.2     0  <0>0        0.2402
      4  N1         8.8510   35.6660   57.9000 N.am    0  <0>0       -0.3046
      5  H13        9.8160   35.7520   57.9460 H       0  <0>0        0.1494
      6  O1         7.0320   34.5140   58.4340 O.2     0  <0>0       -0.2733
      7  C3         8.0600   36.6720   57.1880 C.3     0  <0>0        0.0716
      8  C2         8.5070   38.0710   57.6160 C.3     0  <0>0        0.0196
      9  C1         7.6620   38.5340   58.8040 C.3     0  <0>0        0.0017
     10  C4         8.2680   36.5100   55.6800 C.3     0  <0>0        0.0196
     11  C5         6.9620   36.0470   55.0320 C.3     0  <0>0        0.0017
     12  N2         9.0510   33.8880   60.6580 N.pl3   0  <0>0       -0.3263
     13  H17        8.2140   34.0640   61.1140 H       0  <0>0        0.1472
     14  C9        10.2540   33.9220   61.3670 C.ar    0  <0>0        0.0561
     15  C14       10.9270   35.1250   61.5380 C.ar    0  <0>0        0.0708
     16  C13       12.1150   35.1560   62.2440 C.ar    0  <0>0        0.0131
     17 Cl         10.2740   36.5890   60.8720 Cl      0  <0>0       -0.0810
     18  C12       12.6390   33.9910   62.7720 C.ar    0  <0>0        0.0076
     19  C11       11.9740   32.7890   62.5970 C.ar    0  <0>0        0.0358
     20  C10       10.7830   32.7520   61.8970 C.ar    0  <0>0        0.0219
     21 Br         12.6950   31.1970   63.3200 Br      0  <0>0       -0.0490
@<TRIPOS>BOND
     1    11    10    1
     2    10     7    1
     3     7     8    1
     4     7     4    1
     5     8     9    1
     6     4     5    1
     7     4     3   am
     8     6     3    2
     9     3     1    1
    10     2     1    1
    11     1    12    1
    12    12    13    1
    13    12    14    1
    14    17    15    1
    15    14    15   ar
    16    14    20   ar
    17    15    16   ar
    18    20    19   ar
    19    16    18   ar
    20    19    18   ar
    21    19    21    1
