@<TRIPOS>MOLECULE
ZINC39506382_replica-1.pdb
 24 26 0 0 0
SMALL
GASTEIGER

@<TRIPOS>ATOM
      1  C4         7.9600   35.8790   57.8350 C.3     0  <0>0        0.1476
      2  C5         9.3860   35.5350   58.3480 C.3     0  <0>0        0.0410
      3  C6         9.1590   35.2870   59.8490 C.3     0  <0>0        0.0619
      4  C7         9.5410   36.5320   60.6580 C.3     0  <0>0        0.0163
      5  C8        10.6700   36.0980   61.6180 C.3     0  <0>0        0.0059
      6  C9        10.4780   34.5660   61.7630 C.3     0  <0>0        0.0267
      7  C10       10.0540   34.1360   60.3360 C.3     0  <0>0        0.0205
      8  N1         7.7410   34.9550   60.0400 N.3     0  <0>0       -0.1992
      9  C17        7.0790   34.9590   58.7160 C.3     0  <0>0        0.1123
     10 Cl          7.5650   33.4370   60.8080 Cl      0  <0>0       -0.0198
     11  S1         7.7840   35.4600   56.0800 S.O2    0  <0>0       -0.0119
     12  O1         7.0920   34.2240   55.9780 O.2     0  <0>0       -0.1730
     13  O2         9.0550   35.5930   55.4560 O.2     0  <0>0       -0.1730
     14  C2         6.7010   36.7770   55.4600 C.3     0  <0>0        0.1292
     15  C1         5.2650   36.5130   55.9170 C.3     0  <0>0        0.0253
     16  C3         7.1710   38.1260   56.0100 C.3     0  <0>0        0.0253
     17  C11       11.7710   33.9030   62.1630 C.ar    0  <0>0        0.0112
     18  C16       11.7540   32.6400   62.7380 C.ar    0  <0>0        0.1296
     19  C15       12.9450   32.0290   63.1000 C.ar    0  <0>0        0.0363
     20  C14       14.1440   32.6830   62.8980 C.ar    0  <0>0        0.0031
     21  C13       14.1590   33.9440   62.3290 C.ar    0  <0>0       -0.0001
     22  C12       12.9730   34.5530   61.9630 C.ar    0  <0>0       -0.0013
     23  O3        10.5720   32.0010   62.9420 O.3     0  <0>0       -0.5058
     24  H22       10.0550   31.8620   62.1360 H       0  <0>0        0.2922
@<TRIPOS>BOND
     1    13    11    2
     2    14    15    1
     3    14    16    1
     4    14    11    1
     5    12    11    2
     6    11     1    1
     7     1     2    1
     8     1     9    1
     9     2     3    1
    10     9     8    1
    11     3     8    1
    12     3     7    1
    13     3     4    1
    14     8    10    1
    15     7     6    1
    16     4     5    1
    17     5     6    1
    18     6    17    1
    19    22    17   ar
    20    22    21   ar
    21    24    23    1
    22    17    18   ar
    23    21    20   ar
    24    18    23    1
    25    18    19   ar
    26    20    19   ar
