@<TRIPOS>MOLECULE
ZINC13075683_replica-1.pdb
 23 23 0 0 0
SMALL
GASTEIGER

@<TRIPOS>ATOM
      1  S1         8.3590   35.9850   57.7330 S.O2    0  <0>0        0.0610
      2  O1         8.8030   37.3210   57.5410 O.2     0  <0>0       -0.1530
      3  O2         8.9690   34.8790   57.0820 O.2     0  <0>0       -0.1530
      4  N1         8.4500   35.6860   59.3600 N.3     0  <0>0       -0.1807
      5  H18        7.6450   35.4730   59.8590 H       0  <0>0        0.1487
      6  C2         9.7440   35.7430   60.0440 C.3     0  <0>0        0.0755
      7  C1         9.7750   36.9550   60.9770 C.3     0  <0>0        0.0188
      8  C3         9.9450   34.4640   60.8620 C.3     0  <0>0        0.0174
      9  C4        11.3940   34.3910   61.3450 C.3     0  <0>0        0.0014
     10  C5        11.5540   33.2050   62.2980 C.3     0  <0>0        0.0000
     11  C6        12.9060   33.3010   63.0100 C.3     0  <0>0        0.0000
     12  C7        13.4590   31.8930   63.2440 C.3     0  <0>0        0.0000
     13  C8        13.8840   34.0950   62.1440 C.3     0  <0>0        0.0000
     14  C9         6.6540   35.9530   57.2920 C.ar    0  <0>0        0.1326
     15  C14        6.2730   36.2240   55.9880 C.ar    0  <0>0        0.0762
     16  C13        4.9340   36.1960   55.6310 C.ar    0  <0>0        0.0130
     17 Cl          7.4770   36.5950   54.7940 Cl      0  <0>0       -0.0809
     18  C12        3.9720   35.9080   56.5750 C.ar    0  <0>0        0.0075
     19  C11        4.3490   35.6390   57.8940 C.ar    0  <0>0        0.0812
     20  C10        5.7020   35.6640   58.2460 C.ar    0  <0>0        0.0273
     21  C15        3.3260   35.3290   58.9090 C.2     0  <0>0        0.3878
     22  O3         2.2080   35.8180   58.8190 O.co2   0  <0>0       -0.2406
     23  O4         3.5940   34.5840   59.8410 O.co2   0  <0>0       -0.2406
@<TRIPOS>BOND
     1    17    15    1
     2    16    15   ar
     3    16    18   ar
     4    15    14   ar
     5    18    19   ar
     6     3     1    2
     7    14     1    1
     8    14    20   ar
     9     2     1    2
    10     1     4    1
    11    19    20   ar
    12    19    21    1
    13    22    21   ar
    14    21    23   ar
    15     4     5    1
    16     4     6    1
    17     6     8    1
    18     6     7    1
    19     8     9    1
    20     9    10    1
    21    13    11    1
    22    10    11    1
    23    11    12    1
