@<TRIPOS>MOLECULE
ZINC32603651_replica-1.pdb
 26 28 0 0 0
SMALL
GASTEIGER

@<TRIPOS>ATOM
      1  S1         6.3200   34.9470   59.5890 S.O2    0  <0>0        0.0785
      2  O1         7.1480   33.7970   59.6820 O.2     0  <0>0       -0.1497
      3  O2         5.9670   35.7250   60.7250 O.2     0  <0>0       -0.1497
      4  C4         4.8100   34.4230   58.8490 C.ar    0  <0>0        0.1212
      5  C3         3.6180   35.0250   59.2080 C.ar    0  <0>0        0.0161
      6  C2         2.4340   34.6140   58.6260 C.ar    0  <0>0       -0.0143
      7  C1         1.1350   35.2700   59.0180 C.3     0  <0>0        0.0316
      8  C7         2.4400   33.5990   57.6870 C.ar    0  <0>0        0.0304
      9  C6         3.6320   32.9960   57.3270 C.ar    0  <0>0        0.0034
     10 Br          0.8190   33.0360   56.8910 Br      0  <0>0       -0.0493
     11  C5         4.8170   33.4120   57.9050 C.ar    0  <0>0       -0.0032
     12  C8         6.1160   32.7590   57.5100 C.3     0  <0>0        0.0237
     13  C9         5.9810   31.2400   57.6240 C.3     0  <0>0        0.0047
     14  C10        6.4570   33.1330   56.0650 C.3     0  <0>0        0.0047
     15  N1         7.0570   35.9760   58.5210 N.pl3   0  <0>0       -0.1572
     16  C13        8.3310   36.4560   58.6050 C.2     0  <0>0        0.2013
     17  N2         8.5470   37.2410   57.5720 N.2     0  <0>0       -0.3923
     18  C12        7.4440   37.2850   56.8160 C.2     0  <0>0        0.1106
     19  C11        6.5040   36.5050   57.3860 C.3     0  <0>0        0.1724
     20  C20        7.2820   38.0740   55.5410 C.3     0  <0>0        0.0634
     21  C14        9.3040   36.1470   59.6760 C.ar    0  <0>0        0.0454
     22  C19       10.1170   35.0170   59.5790 C.ar    0  <0>0        0.0039
     23  C18       11.0240   34.7350   60.5790 C.ar    0  <0>0        0.0001
     24  C17       11.1270   35.5700   61.6790 C.ar    0  <0>0        0.0000
     25  C16       10.3230   36.6910   61.7810 C.ar    0  <0>0        0.0001
     26  C15        9.4170   36.9880   60.7840 C.ar    0  <0>0        0.0039
@<TRIPOS>BOND
     1    20    18    1
     2    14    12    1
     3    18    19    1
     4    18    17    2
     5    10     8    1
     6     9     8   ar
     7     9    11   ar
     8    19    15    1
     9    12    13    1
    10    12    11    1
    11    17    16    2
    12     8     6   ar
    13    11     4   ar
    14    15    16    1
    15    15     1    1
    16    16    21    1
    17     6     7    1
    18     6     5   ar
    19     4     5   ar
    20     4     1    1
    21    22    21   ar
    22    22    23   ar
    23     1     2    2
    24     1     3    2
    25    21    26   ar
    26    23    24   ar
    27    26    25   ar
    28    24    25   ar
