@<TRIPOS>MOLECULE
ZINC41516772_replica-1.pdb
 22 23 0 0 0
SMALL
GASTEIGER

@<TRIPOS>ATOM
      1  C11        8.3750   36.9320   59.2480 C.3     0  <0>0        0.0560
      2  C8         9.4180   36.2600   60.1040 C.ar    0  <0>0       -0.0198
      3  C7         9.9250   36.9100   61.2130 C.ar    0  <0>0       -0.0045
      4  C6        10.8810   36.2930   61.9990 C.ar    0  <0>0       -0.0046
      5  C5        11.3280   35.0260   61.6760 C.ar    0  <0>0       -0.0228
      6  C10       10.8240   34.3770   60.5640 C.ar    0  <0>0       -0.0046
      7  C9         9.8660   34.9930   59.7800 C.ar    0  <0>0       -0.0045
      8  C2        12.3690   34.3530   62.5330 C.3     0  <0>0        0.0189
      9  C1        13.6900   34.2770   61.7640 C.3     0  <0>0        0.0044
     10  C3        11.9020   32.9390   62.8870 C.3     0  <0>0        0.0044
     11  C4        12.5710   35.1590   63.8170 C.3     0  <0>0        0.0044
     12  C12        8.3180   36.2470   57.8810 C.3     0  <0>0        0.0341
     13  C13        6.8820   36.1160   57.4450 C.ar    0  <0>0       -0.0112
     14  C18        6.5540   36.2070   56.1050 C.ar    0  <0>0        0.0537
     15  C17        5.2350   36.0810   55.7050 C.ar    0  <0>0        0.0111
     16 Cl          7.7970   36.4730   54.9230 Cl      0  <0>0       -0.0826
     17  C16        4.2450   35.8750   56.6470 C.ar    0  <0>0        0.0008
     18  C15        4.5720   35.7880   57.9870 C.ar    0  <0>0       -0.0003
     19  C14        5.8900   35.9090   58.3870 C.ar    0  <0>0       -0.0034
     20  C19        8.7390   38.4070   59.0640 C.3     0  <0>0        0.1418
     21  O1         7.6510   39.2240   59.4980 O.3     0  <0>0       -0.3816
     22  H23        7.8940   40.1430   59.6750 H       0  <0>0        0.2105
@<TRIPOS>BOND
     1    16    14    1
     2    15    14   ar
     3    15    17   ar
     4    14    13   ar
     5    17    18   ar
     6    13    12    1
     7    13    19   ar
     8    12     1    1
     9    18    19   ar
    10    20     1    1
    11    20    21    1
    12     1     2    1
    13    21    22    1
    14     7     2   ar
    15     7     6   ar
    16     2     3   ar
    17     6     5   ar
    18     3     4   ar
    19     5     4   ar
    20     5     8    1
    21     9     8    1
    22     8    10    1
    23     8    11    1
