@<TRIPOS>MOLECULE
ZINC08905744_replica-1.pdb
 31 32 0 0 0
SMALL
GASTEIGER

@<TRIPOS>ATOM
      1  C13        0.9290   33.3740   57.2770 C.2     0  <0>0        0.2825
      2  O2         1.8460   32.5810   57.3230 O.2     0  <0>0       -0.2695
      3  N1        -0.0500   33.2200   56.3630 N.am    0  <0>0       -0.2306
      4  H18       -0.7850   33.8520   56.3290 H       0  <0>0        0.1729
      5  N2        -0.0050   32.1470   55.4630 N.am    0  <0>0       -0.2302
      6  C14       -0.9640   31.1990   55.4970 C.2     0  <0>0        0.2614
      7  O3        -1.8670   31.2770   56.3070 O.2     0  <0>0       -0.2686
      8  H19        0.7160   32.0860   54.8170 H       0  <0>0        0.1731
      9  C15       -0.9160   30.0670   54.5470 C.ar    0  <0>0        0.0548
     10  C20       -1.8470   29.9840   53.5090 C.ar    0  <0>0        0.0042
     11  C19       -1.7970   28.9260   52.6260 C.ar    0  <0>0       -0.0041
     12  C18       -0.8270   27.9490   52.7670 C.ar    0  <0>0       -0.0228
     13  C17        0.0980   28.0250   53.7920 C.ar    0  <0>0       -0.0041
     14  C16        0.0620   29.0810   54.6800 C.ar    0  <0>0        0.0042
     15  C21       -0.7790   26.7960   51.7980 C.3     0  <0>0        0.0189
     16  C22       -0.5070   25.4980   52.5610 C.3     0  <0>0        0.0044
     17  C23       -2.1180   26.6860   51.0670 C.3     0  <0>0        0.0044
     18  C24        0.3400   27.0310   50.7800 C.3     0  <0>0        0.0044
     19  C12        0.8820   34.5280   58.2440 C.3     0  <0>0        0.2909
     20  O1         1.3340   35.7150   57.5920 O.3     0  <0>0       -0.4656
     21  C9         2.6740   35.8420   57.4000 C.ar    0  <0>0        0.1393
     22  C8         3.1760   36.0610   56.1250 C.ar    0  <0>0        0.0366
     23  C7         4.5370   36.1890   55.9310 C.ar    0  <0>0       -0.0012
     24  C6         5.4010   36.0970   57.0090 C.ar    0  <0>0       -0.0226
     25  C11        4.9030   35.8770   58.2790 C.ar    0  <0>0       -0.0012
     26  C10        3.5420   35.7550   58.4780 C.ar    0  <0>0        0.0366
     27  C3         6.8860   36.2370   56.7940 C.3     0  <0>0        0.0189
     28  C4         7.5180   36.8980   58.0210 C.3     0  <0>0        0.0044
     29  C5         7.5040   34.8530   56.5850 C.3     0  <0>0        0.0044
     30  C2         7.1430   37.1030   55.5590 C.3     0  <0>0        0.0040
     31  C1         7.3920   38.5490   55.9930 C.3     0  <0>0        0.0003
@<TRIPOS>BOND
     1    18    15    1
     2    17    15    1
     3    15    16    1
     4    15    12    1
     5    11    12   ar
     6    11    10   ar
     7    12    13   ar
     8    10     9   ar
     9    13    14   ar
    10     9    14   ar
    11     9     6    1
    12     8     5    1
    13     5     6   am
    14     5     3    1
    15     6     7    2
    16    30    31    1
    17    30    27    1
    18    23    22   ar
    19    23    24   ar
    20    22    21   ar
    21     4     3    1
    22     3     1   am
    23    29    27    1
    24    27    24    1
    25    27    28    1
    26    24    25   ar
    27     1     2    2
    28     1    19    1
    29    21    20    1
    30    21    26   ar
    31    20    19    1
    32    25    26   ar
