@<TRIPOS>MOLECULE
ZINC36337225_replica-1.pdb
 19 19 0 0 0
SMALL
GASTEIGER

@<TRIPOS>ATOM
      1  C5         6.6290   35.2200   59.5490 C.3     0  <0>0        0.0622
      2  C6         7.4860   35.6880   58.3710 C.3     0  <0>0        0.0119
      3  C7         6.9520   37.0230   57.8490 C.3     0  <0>0        0.0009
      4  C8         7.0080   38.0670   58.9670 C.3     0  <0>0        0.0011
      5  C9         6.1490   37.5990   60.1430 C.3     0  <0>0        0.0160
      6  C10        6.6840   36.2640   60.6660 C.3     0  <0>0        0.1013
      7  C11        8.0770   36.4340   61.1110 C.1     0  <0>0        0.0729
      8  N1         9.1510   36.5650   61.4540 N.1     0  <0>0       -0.1959
      9  S1         7.2630   33.6380   60.1680 S.3     0  <0>0       -0.1284
     10  C4         8.7310   33.3240   59.1490 C.3     0  <0>0        0.1670
     11  C3         8.4470   32.1910   58.1970 C.2     0  <0>0        0.3281
     12  O2         8.4210   31.0530   58.6020 O.2     0  <0>0       -0.2491
     13  O1         8.2220   32.4460   56.8980 O.3     0  <0>0       -0.4479
     14  C2         6.9250   32.1290   56.3900 C.3     0  <0>0        0.2086
     15  C1         6.3490   33.3470   55.6650 C.3     0  <0>0        0.0513
     16  C12        7.8100   37.4900   56.6710 C.3     0  <0>0        0.0000
     17  C13        8.8030   38.5500   57.1530 C.3     0  <0>0        0.0000
     18  C14        8.5750   36.2980   56.0950 C.3     0  <0>0        0.0000
     19  C15        6.9080   38.0890   55.5900 C.3     0  <0>0        0.0000
@<TRIPOS>BOND
     1    19    16    1
     2    15    14    1
     3    18    16    1
     4    14    13    1
     5    16    17    1
     6    16     3    1
     7    13    11    1
     8     3     2    1
     9     3     4    1
    10    11    12    2
    11    11    10    1
    12     2     1    1
    13     4     5    1
    14    10     9    1
    15     1     9    1
    16     1     6    1
    17     5     6    1
    18     6     7    1
    19     7     8    3
