@<TRIPOS>MOLECULE
ZINC32230362_replica-1.pdb
 25 26 0 0 0
SMALL
GASTEIGER

@<TRIPOS>ATOM
      1  C10        2.5010   36.0410   58.5630 C.3     0  <0>0        0.1206
      2  C9         2.1830   35.6670   57.1150 C.3     0  <0>0        0.1735
      3  C8         3.2860   36.1970   56.1970 C.3     0  <0>0        0.2361
      4  O1         4.2270   35.1530   55.9320 O.3     0  <0>0       -0.4728
      5  C6         5.5440   35.4720   56.0300 C.ar    0  <0>0        0.1384
      6  C5         6.5000   34.4680   56.0860 C.ar    0  <0>0        0.0369
      7  C4         7.8390   34.7950   56.1860 C.ar    0  <0>0        0.0028
      8  C3         8.2260   36.1220   56.2310 C.ar    0  <0>0       -0.0041
      9  C2         7.2750   37.1240   56.1820 C.ar    0  <0>0       -0.0188
     10  C1         7.7000   38.5690   56.2390 C.3     0  <0>0        0.0311
     11  C7         5.9350   36.8030   56.0750 C.ar    0  <0>0        0.0326
     12  O2         0.9300   36.2430   56.7370 O.3     0  <0>0       -0.3791
     13  H27        0.2110   36.5520   57.5090 H       0  <0>0        0.2106
     14  N1         3.4700   35.0900   59.1130 N.pl3   0  <0>0       -0.3306
     15  H13        3.1700   34.0490   59.3060 H       0  <0>0        0.1469
     16  C11        4.7750   35.5020   59.3910 C.ar    0  <0>0        0.0447
     17  C16        5.0670   36.8540   59.5120 C.ar    0  <0>0        0.0140
     18  C15        6.3580   37.2590   59.7880 C.ar    0  <0>0       -0.0030
     19  C14        7.3610   36.3180   59.9420 C.ar    0  <0>0       -0.0227
     20  C13        7.0740   34.9710   59.8210 C.ar    0  <0>0       -0.0030
     21  C12        5.7830   34.5590   59.5520 C.ar    0  <0>0        0.0140
     22  C17        8.7690   36.7630   60.2420 C.3     0  <0>0        0.0189
     23  C18        8.9570   36.8730   61.7560 C.3     0  <0>0        0.0044
     24  C19        9.7570   35.7400   59.6790 C.3     0  <0>0        0.0044
     25  C20        9.0220   38.1260   59.5960 C.3     0  <0>0        0.0044
@<TRIPOS>BOND
     1     4     5    1
     2     4     3    1
     3     5    11   ar
     4     5     6   ar
     5    11     9   ar
     6     6     7   ar
     7     9     8   ar
     8     9    10    1
     9     7     8   ar
    10     3     2    1
    11    12     2    1
    12    12    13    1
    13     2     1    1
    14     1    14    1
    15    14    15    1
    16    14    16    1
    17    16    17   ar
    18    16    21   ar
    19    17    18   ar
    20    21    20   ar
    21    25    22    1
    22    24    22    1
    23    18    19   ar
    24    20    19   ar
    25    19    22    1
    26    22    23    1
