@<TRIPOS>MOLECULE
ZINC14983957_replica-1.pdb
 16 17 0 0 0
SMALL
GASTEIGER

@<TRIPOS>ATOM
      1  C3         8.8850   37.1180   59.1090 C.ar    0  <0>0        0.0795
      2  C4         9.6620   37.0790   60.2610 C.ar    0  <0>0        0.0133
      3  C5        10.3070   35.9100   60.6330 C.ar    0  <0>0        0.0363
      4  C6        10.1900   34.7670   59.8690 C.ar    0  <0>0        0.0252
      5  C7         9.4190   34.7760   58.7100 C.ar    0  <0>0        0.0765
      6  C8         8.7540   35.9510   58.3210 C.ar    0  <0>0        0.0481
      7  C9         8.0550   35.6560   57.1300 C.ar    0  <0>0        0.1314
      8  N1         8.2690   34.4090   56.8180 N.ar    0  <0>0       -0.1668
      9  N2         9.1180   33.8250   57.7670 N.ar    0  <0>0       -0.2753
     10  H1         9.4470   32.8800   57.7590 H       0  <0>0        0.1890
     11  I1         6.8720   37.0000   56.0420 I       0  <0>0       -0.0193
     12 Br         11.3580   35.8810   62.2040 Br      0  <0>0       -0.0489
     13  C2         8.2000   38.3620   58.7150 C.2     0  <0>0        0.3414
     14  O2         8.6660   39.0610   57.8380 O.2     0  <0>0       -0.2449
     15  O1         7.0560   38.7240   59.3290 O.3     0  <0>0       -0.4413
     16  C1         6.2870   37.6700   59.9650 C.3     0  <0>0        0.2560
@<TRIPOS>BOND
     1    11     7    1
     2     8     7   ar
     3     8     9   ar
     4     7     6   ar
     5    10     9    1
     6     9     5   ar
     7    14    13    2
     8     6     5   ar
     9     6     1   ar
    10     5     4   ar
    11    13     1    1
    12    13    15    1
    13     1     2   ar
    14    15    16    1
    15     4     3   ar
    16     2     3   ar
    17     3    12    1
