@<TRIPOS>MOLECULE
ZINC04876296_replica-1.pdb
 29 31 0 0 0
SMALL
GASTEIGER

@<TRIPOS>ATOM
      1  N1         6.9070   36.2740   57.2820 N.am    0  <0>0       -0.2584
      2  C13        5.6330   35.9530   57.5810 C.2     0  <0>0        0.2338
      3  O1         5.3810   35.3650   58.6110 O.2     0  <0>0       -0.2742
      4  C14        4.5210   36.3260   56.6350 C.3     0  <0>0        0.1136
      5  C15        3.6230   35.1350   56.4200 C.ar    0  <0>0        0.0105
      6  C22        3.7790   34.1730   55.4720 C.ar    0  <0>0        0.1339
      7  N2         2.7570   33.2500   55.5920 N.ar    0  <0>0       -0.3482
      8  C21        1.9380   33.6280   56.6290 C.ar    0  <0>0        0.0565
      9  H1         2.6380   32.4650   55.0350 H       0  <0>0        0.1661
     10  C16        2.4640   34.8170   57.1700 C.ar    0  <0>0        0.0137
     11  C20        0.7840   33.0780   57.1800 C.ar    0  <0>0        0.0170
     12  C17        1.8210   35.4320   58.2520 C.ar    0  <0>0        0.0012
     13  C18        0.6900   34.8740   58.7750 C.ar    0  <0>0        0.0001
     14  C19        0.1720   33.6990   58.2470 C.ar    0  <0>0        0.0015
     15  C23        4.8610   34.1230   54.4800 C.2     0  <0>0        0.4027
     16  O2         4.7200   34.6620   53.3990 O.co2   0  <0>0       -0.2389
     17  O3         6.0090   33.4780   54.7660 O.co2   0  <0>0       -0.2389
     18  C3         7.2250   36.8900   55.9920 C.3     0  <0>0        0.0982
     19  C2         7.2960   38.4090   56.1550 C.3     0  <0>0        0.0219
     20  C1         8.7000   38.8080   56.6150 C.3     0  <0>0        0.0018
     21  C4         7.9270   36.0200   58.2050 C.ar    0  <0>0        0.0538
     22  C9         8.8130   34.9720   57.9930 C.ar    0  <0>0        0.0146
     23  C8         9.8190   34.7230   58.9070 C.ar    0  <0>0       -0.0030
     24  C7         9.9450   35.5180   60.0310 C.ar    0  <0>0       -0.0224
     25  C6         9.0650   36.5620   60.2460 C.ar    0  <0>0       -0.0030
     26  C5         8.0600   36.8200   59.3340 C.ar    0  <0>0        0.0146
     27  C10       11.0430   35.2430   61.0260 C.3     0  <0>0        0.0224
     28  C11       11.0000   36.2950   62.1360 C.3     0  <0>0        0.0047
     29  C12       10.8460   33.8520   61.6320 C.3     0  <0>0        0.0047
@<TRIPOS>BOND
     1    16    15   ar
     2    15    17   ar
     3    15     6    1
     4     9     7    1
     5     6     7   ar
     6     6     5   ar
     7     7     8   ar
     8    18    19    1
     9    18     1    1
    10    19    20    1
    11     5     4    1
    12     5    10   ar
    13     8    10   ar
    14     8    11   ar
    15     4     2    1
    16    10    12   ar
    17    11    14   ar
    18     1     2   am
    19     1    21    1
    20     2     3    2
    21    22    21   ar
    22    22    23   ar
    23    21    26   ar
    24    14    13   ar
    25    12    13   ar
    26    23    24   ar
    27    26    25   ar
    28    24    25   ar
    29    24    27    1
    30    27    29    1
    31    27    28    1
