@<TRIPOS>MOLECULE
ZINC02316782_replica-1.pdb
 33 37 0 0 0
SMALL
GASTEIGER

@<TRIPOS>ATOM
      1  C10        1.7040   31.8890   56.4760 C.2     0  <0>0        0.1412
      2  S1         1.5360   31.6940   58.1680 S.2     0  <0>0       -0.0182
      3  N2         2.1580   33.0540   55.9740 N.am    0  <0>0       -0.2949
      4  H7         2.1950   33.1870   55.0140 H       0  <0>0        0.1539
      5  C11        2.5770   34.0730   56.8380 C.ar    0  <0>0        0.0603
      6  C16        1.6660   35.0230   57.2870 C.ar    0  <0>0        0.0711
      7  C15        2.0770   36.0320   58.1400 C.ar    0  <0>0        0.0127
      8 Cl          0.0090   34.9410   56.7760 Cl      0  <0>0       -0.0810
      9  C14        3.3920   36.1020   58.5510 C.ar    0  <0>0        0.0040
     10  C13        4.3130   35.1530   58.1050 C.ar    0  <0>0        0.0372
     11  C12        3.9020   34.1390   57.2400 C.ar    0  <0>0        0.0186
     12  C17        5.7240   35.2250   58.5440 C.2     0  <0>0        0.1611
     13  S2         7.1560   34.4080   57.8530 S.3     0  <0>0       -0.0532
     14  C23        8.3550   35.0640   58.9880 C.2     0  <0>0        0.0574
     15  C18        7.5590   35.8760   59.8310 C.2     0  <0>0        0.1374
     16  C22        9.7130   34.9370   59.1500 C.2     0  <0>0       -0.0123
     17  N3         6.2430   35.9050   59.5430 N.2     0  <0>0       -0.3949
     18  C19        8.2420   36.5560   60.8680 C.2     0  <0>0        0.0283
     19  C20        9.5860   36.4190   61.0230 C.2     0  <0>0       -0.0188
     20  C21       10.3400   35.6150   60.1800 C.3     0  <0>0        0.0527
     21  N1         1.3820   30.8770   55.6460 N.am    0  <0>0       -0.2610
     22  C9         0.1160   30.7440   55.2050 C.2     0  <0>0        0.2855
     23  O2        -0.7360   31.5370   55.5550 O.2     0  <0>0       -0.2664
     24  H6         2.0630   30.2450   55.3670 H       0  <0>0        0.1569
     25  C8        -0.2350   29.6420   54.3000 C.ar    0  <0>0        0.1987
     26  C7         0.2320   28.3700   54.3970 C.ar    0  <0>0        0.0452
     27  C5        -0.3800   27.6280   53.2970 C.ar    0  <0>0        0.0377
     28  C4        -1.1890   28.5550   52.6140 C.ar    0  <0>0        0.1455
     29  C6        -0.3080   26.3040   52.8550 C.ar    0  <0>0        0.0031
     30  C3        -1.9100   28.1360   51.5020 C.ar    0  <0>0        0.0375
     31  O1        -1.0770   29.7380   53.2490 O.2     0  <0>0       -0.4489
     32  C2        -1.8250   26.8260   51.0820 C.ar    0  <0>0        0.0031
     33  C1        -1.0260   25.9150   51.7590 C.ar    0  <0>0        0.0002
@<TRIPOS>BOND
     1    32    30   ar
     2    32    33   ar
     3    30    28   ar
     4    33    29   ar
     5    28    31   ar
     6    28    27   ar
     7    29    27   ar
     8    31    25   ar
     9    27    26   ar
    10    25    26   ar
    11    25    22    1
    12     4     3    1
    13    22    23    2
    14    22    21   am
    15    24    21    1
    16    21     1    1
    17     3     1    1
    18     3     5    1
    19     1     2    2
    20     8     6    1
    21     5    11   ar
    22     5     6   ar
    23    11    10   ar
    24     6     7   ar
    25    13    12    1
    26    13    14    1
    27    10    12    1
    28    10     9   ar
    29     7     9   ar
    30    12    17    2
    31    14    16    2
    32    14    15    1
    33    16    20    1
    34    17    15    2
    35    15    18    1
    36    20    19    1
    37    18    19    2
