@<TRIPOS>MOLECULE
ZINC35661740_replica-1.pdb
 21 23 0 0 0
SMALL
GASTEIGER

@<TRIPOS>ATOM
      1  C1        -2.3310   29.9980   54.8490 C.3     0  <0>0        0.0220
      2  C2        -0.9540   29.9050   54.1890 C.3     0  <0>0        0.0769
      3  C3        -0.4490   28.4880   54.2770 C.ar    0  <0>0       -0.0080
      4  C8        -0.6940   27.5850   53.2290 C.ar    0  <0>0       -0.0027
      5  C7        -0.2070   26.2570   53.3260 C.ar    0  <0>0       -0.0003
      6  C9        -1.4100   27.9740   52.0820 C.ar    0  <0>0       -0.0003
      7  C6         0.5020   25.8680   54.4750 C.ar    0  <0>0       -0.0000
      8  C12       -0.4470   25.3570   52.2740 C.ar    0  <0>0       -0.0000
      9  C5         0.7160   26.7680   55.4730 C.ar    0  <0>0       -0.0003
     10  C4         0.2420   28.0740   55.3740 C.ar    0  <0>0       -0.0030
     11  C11       -1.1540   25.7640   51.1860 C.ar    0  <0>0       -0.0000
     12  C10       -1.6280   27.0710   51.0870 C.ar    0  <0>0       -0.0000
     13  N1        -0.0190   30.8010   54.8820 N.3     0  <0>0       -0.2947
     14  H12        0.7190   30.2790   55.3280 H       0  <0>0        0.1235
     15  C13       -0.7240   31.6510   55.8510 C.3     0  <0>0        0.0768
     16  C14       -0.0490   31.5320   57.2190 C.3     0  <0>0        0.0816
     17  C15        0.2930   32.9080   57.7320 C.ar    0  <0>0        0.1244
     18  O1         0.4630   34.0070   56.9790 O.2     0  <0>0       -0.4546
     19  C18        0.7550   35.0510   57.7700 C.ar    0  <0>0        0.1791
     20  C17        0.7830   34.6240   59.0450 C.ar    0  <0>0        0.0434
     21  C16        0.4850   33.2420   59.0200 C.ar    0  <0>0        0.0362
@<TRIPOS>BOND
     1    12    11   ar
     2    12     6   ar
     3    11     8   ar
     4     6     4   ar
     5     8     5   ar
     6     4     5   ar
     7     4     3   ar
     8     5     7   ar
     9     2     3    1
    10     2     1    1
    11     2    13    1
    12     3    10   ar
    13     7     9   ar
    14    13    14    1
    15    13    15    1
    16    10     9   ar
    17    15    16    1
    18    18    17   ar
    19    18    19   ar
    20    16    17    1
    21    17    21   ar
    22    19    20   ar
    23    21    20   ar
