@<TRIPOS>MOLECULE
ZINC06277300_replica-1.pdb
 22 24 0 0 0
SMALL
GASTEIGER

@<TRIPOS>ATOM
      1  C8         0.5380   27.7020   56.8980 C.2     0  <0>0        0.1269
      2  C9        -0.1350   28.9200   56.7160 C.2     0  <0>0        0.0108
      3  C10       -0.7370   29.1900   55.4950 C.2     0  <0>0        0.0664
      4  C11       -0.6290   28.1680   54.4530 C.3     0  <0>0        0.1024
      5  C12       -1.2040   28.3490   53.1900 C.2     0  <0>0       -0.0191
      6  C13       -1.0790   27.3710   52.2480 C.2     0  <0>0       -0.0253
      7  C14       -0.3870   26.1930   52.5270 C.2     0  <0>0       -0.0023
      8  C15        0.1830   25.9860   53.7450 C.2     0  <0>0        0.0279
      9  C16        0.0750   26.9730   54.7440 C.2     0  <0>0        0.1169
     10  N1         0.6230   26.7980   55.9470 N.2     0  <0>0       -0.4059
     11  C17       -1.6970   27.5650   50.8870 C.3     0  <0>0        0.0307
     12  C19       -0.2050   29.9250   57.8370 C.3     0  <0>0        0.0336
     13  C5         1.1750   27.4260   58.2080 C.ar    0  <0>0        0.0292
     14  C4         0.5640   26.5640   59.1170 C.ar    0  <0>0        0.0022
     15  C3         1.1610   26.3130   60.3350 C.ar    0  <0>0       -0.0042
     16  C2         2.3670   26.9130   60.6540 C.ar    0  <0>0       -0.0218
     17  C1         3.0150   26.6330   61.9850 C.3     0  <0>0        0.0310
     18  C7         2.9780   27.7700   59.7560 C.ar    0  <0>0       -0.0042
     19  C6         2.3920   28.0240   58.5340 C.ar    0  <0>0        0.0022
     20  C18       -1.4580   30.4580   55.2560 C.2     0  <0>0        0.3843
     21  O1        -0.8670   31.4180   54.8030 O.co2   0  <0>0       -0.2409
     22  O2        -2.7730   30.5490   55.5400 O.co2   0  <0>0       -0.2409
@<TRIPOS>BOND
     1    11     6    1
     2     6     7    1
     3     6     5    2
     4     7     8    2
     5     5     4    1
     6     8     9    1
     7     4     9    1
     8     4     3    1
     9     9    10    2
    10    21    20   ar
    11    20     3    1
    12    20    22   ar
    13     3     2    2
    14    10     1    2
    15     2     1    1
    16     2    12    1
    17     1    13    1
    18    13    19   ar
    19    13    14   ar
    20    19    18   ar
    21    14    15   ar
    22    18    16   ar
    23    15    16   ar
    24    16    17    1
