@<TRIPOS>MOLECULE
ZINC00389413_replica-1.pdb
 20 23 0 0 0
SMALL
GASTEIGER

@<TRIPOS>ATOM
      1  C1         3.9930   34.3470   59.9260 C.ar    0  <0>0       -0.0002
      2  C2         5.2110   34.7740   60.4250 C.ar    0  <0>0        0.0015
      3  C3         6.1120   35.4060   59.5900 C.ar    0  <0>0        0.0173
      4  C4         5.7940   35.6110   58.2590 C.ar    0  <0>0        0.0625
      5  C5         4.5830   35.1530   57.7460 C.ar    0  <0>0       -0.0055
      6  C6         3.6810   34.5350   58.5940 C.ar    0  <0>0       -0.0028
      7  C7         4.2600   35.2800   56.2810 C.3     0  <0>0        0.0358
      8  C8         4.8430   36.5590   55.6780 C.3     0  <0>0        0.0709
      9  C9         6.2600   36.7250   56.1620 C.ar    0  <0>0        0.1474
     10  N1         6.6650   36.2740   57.3930 N.ar    0  <0>0       -0.2776
     11  C10        7.9750   36.6050   57.5030 C.ar    0  <0>0        0.1700
     12  N2         8.3100   37.2060   56.3770 N.ar    0  <0>0       -0.1287
     13  N3         7.2870   37.2670   55.5920 N.ar    0  <0>0       -0.1330
     14  C11        8.8570   36.3460   58.6620 C.ar    0  <0>0        0.0363
     15  C16        9.0040   37.3100   59.6590 C.ar    0  <0>0        0.0036
     16  C15        9.8220   37.0600   60.7410 C.ar    0  <0>0        0.0068
     17  C14       10.5080   35.8610   60.8320 C.ar    0  <0>0        0.0346
     18  C13       10.3700   34.9030   59.8420 C.ar    0  <0>0        0.0068
     19 Br         11.6340   35.5280   62.3140 Br      0  <0>0       -0.0490
     20  C12        9.5490   35.1390   58.7580 C.ar    0  <0>0        0.0036
@<TRIPOS>BOND
     1    13     9   ar
     2    13    12   ar
     3     8     9    1
     4     8     7    1
     5     9    10   ar
     6     7     5    1
     7    12    11   ar
     8    10    11   ar
     9    10     4    1
    10    11    14    1
    11     5     4   ar
    12     5     6   ar
    13     4     3   ar
    14     6     1   ar
    15    14    20   ar
    16    14    15   ar
    17    20    18   ar
    18     3     2   ar
    19    15    16   ar
    20    18    17   ar
    21     1     2   ar
    22    16    17   ar
    23    17    19    1
