@<TRIPOS>MOLECULE
ZINC21226550_replica-1.pdb
 32 35 0 0 0
SMALL
GASTEIGER

@<TRIPOS>ATOM
      1  C11        8.5310   35.9830   60.4470 C.3     0  <0>0        0.0356
      2  C12        7.7570   34.6920   60.1700 C.3     0  <0>0        0.0458
      3  C13        6.4800   35.0140   59.4360 C.2     0  <0>0        0.0268
      4  C14        6.4080   36.0750   58.6040 C.2     0  <0>0        0.0261
      5  C15        5.1200   36.3750   57.8750 C.3     0  <0>0        0.0596
      6  C16        3.9340   36.0150   58.7720 C.3     0  <0>0        0.0943
      7  C17        4.1460   34.6360   59.3420 C.2     0  <0>0        0.2265
      8  O2         3.1950   33.9120   59.5420 O.2     0  <0>0       -0.2748
      9  N1         5.3880   34.2080   59.6290 N.am    0  <0>0       -0.2875
     10  C24        7.5130   36.9190   58.3970 C.2     0  <0>0        0.1706
     11  O3         7.4150   37.8550   57.6310 O.2     0  <0>0       -0.2916
     12  C25        8.8160   36.6790   59.1130 C.3     0  <0>0        0.0736
     13  H20        5.5190   33.1900   60.0250 H       0  <0>0        0.1545
     14  C8         9.8310   35.6570   61.1360 C.ar    0  <0>0       -0.0215
     15  C7        10.4150   34.4170   60.9560 C.ar    0  <0>0       -0.0011
     16  C6        11.6090   34.1170   61.5810 C.ar    0  <0>0        0.0366
     17  C5        12.2180   35.0580   62.4000 C.ar    0  <0>0        0.1385
     18  C10       11.6300   36.3010   62.5800 C.ar    0  <0>0        0.0366
     19  C9        10.4370   36.5980   61.9470 C.ar    0  <0>0       -0.0011
     20  O1        13.3900   34.7640   63.0210 O.3     0  <0>0       -0.4755
     21  C4        14.2770   33.8710   62.3430 C.3     0  <0>0        0.2053
     22  C2        14.9120   32.9150   63.3560 C.3     0  <0>0        0.0438
     23  C1        15.3390   33.6990   64.5980 C.3     0  <0>0        0.0038
     24  C3        13.8940   31.8440   63.7530 C.3     0  <0>0        0.0038
     25  C18        5.0580   35.5600   56.6080 C.ar    0  <0>0        0.0119
     26  C23        4.1060   35.8490   55.6460 C.ar    0  <0>0        0.1366
     27  C22        4.0480   35.1000   54.4820 C.ar    0  <0>0        0.0316
     28  F1         3.2320   36.8600   55.8420 F       0  <0>0       -0.2045
     29  C21        4.9420   34.0660   54.2820 C.ar    0  <0>0        0.0319
     30  C20        5.8960   33.7780   55.2450 C.ar    0  <0>0        0.1400
     31  C19        5.9550   34.5290   56.4060 C.ar    0  <0>0        0.0279
     32  F2         6.7700   32.7670   55.0480 F       0  <0>0       -0.2042
@<TRIPOS>BOND
     1    29    27   ar
     2    29    30   ar
     3    27    26   ar
     4    32    30    1
     5    30    31   ar
     6    26    28    1
     7    26    25   ar
     8    31    25   ar
     9    25     5    1
    10    11    10    2
    11     5     4    1
    12     5     6    1
    13    10     4    1
    14    10    12    1
    15     4     3    2
    16     6     7    1
    17    12     1    1
    18     7     8    2
    19     7     9   am
    20     3     9    1
    21     3     2    1
    22     9    13    1
    23     2     1    1
    24     1    14    1
    25    15    14   ar
    26    15    16   ar
    27    14    19   ar
    28    16    17   ar
    29    19    18   ar
    30    21    20    1
    31    21    22    1
    32    17    18   ar
    33    17    20    1
    34    22    24    1
    35    22    23    1
