@<TRIPOS>MOLECULE
ZINC11965781_replica-1.pdb
 30 33 0 0 0
SMALL
GASTEIGER

@<TRIPOS>ATOM
      1  C8        10.1490   35.1440   60.1140 C.ar    0  <0>0        0.0022
      2  C9         9.7840   34.6560   58.8590 C.ar    0  <0>0       -0.0010
      3  C10        9.0850   35.4580   57.9880 C.ar    0  <0>0        0.0177
      4  C11        8.7240   36.7530   58.3420 C.ar    0  <0>0        0.1618
      5  C12        9.0930   37.2410   59.5980 C.ar    0  <0>0        0.1735
      6  C13        9.7990   36.4440   60.4730 C.ar    0  <0>0        0.0328
      7  F2         8.7570   38.4990   59.9540 F       0  <0>0       -0.2010
      8  O1         8.0180   37.3570   57.3460 O.3     0  <0>0       -0.4751
      9  C14        8.2500   36.6600   56.1110 C.3     0  <0>0        0.1899
     10  C15        8.5630   35.2200   56.5830 C.3     0  <0>0        0.0748
     11  C16        6.9970   36.6820   55.2330 C.3     0  <0>0        0.1336
     12  N1         5.8070   36.7590   56.0830 N.am    0  <0>0       -0.3008
     13  C17        4.7370   35.9840   55.8170 C.2     0  <0>0        0.2294
     14  O2         4.7600   35.2220   54.8750 O.2     0  <0>0       -0.2747
     15  H14        5.7880   37.3690   56.8370 H       0  <0>0        0.1496
     16  C18        3.5120   36.0630   56.6910 C.3     0  <0>0        0.1401
     17  C19        3.7660   35.3250   57.9800 C.2     0  <0>0        0.1073
     18  N2         4.9370   35.3960   58.5790 N.2     0  <0>0       -0.4073
     19  C21        5.1710   34.7580   59.7010 C.2     0  <0>0        0.1344
     20  S1         3.6530   33.9680   59.9980 S.3     0  <0>0       -0.0795
     21  C22        6.4340   34.7200   60.5230 C.3     0  <0>0        0.0735
     22  C20        2.7910   34.5750   58.5550 C.3     0  <0>0        0.1189
     23  C5        10.9050   34.2850   61.0580 C.ar    0  <0>0        0.0023
     24  C4        10.3330   33.1120   61.5460 C.ar    0  <0>0       -0.0002
     25  C3        11.0420   32.3130   62.4210 C.ar    0  <0>0       -0.0020
     26  C2        12.3130   32.6800   62.8230 C.ar    0  <0>0        0.0056
     27  C1        13.0790   31.8070   63.7820 C.3     0  <0>0        0.0334
     28  C7        12.8850   33.8480   62.3460 C.ar    0  <0>0        0.1361
     29  C6        12.1860   34.6530   61.4650 C.ar    0  <0>0        0.0293
     30  F1        14.1270   34.2020   62.7420 F       0  <0>0       -0.2045
@<TRIPOS>BOND
     1    14    13    2
     2    11    12    1
     3    11     9    1
     4    13    12   am
     5    13    16    1
     6    12    15    1
     7     9    10    1
     8     9     8    1
     9    10     3    1
    10    16    17    1
    11     8     4    1
    12    17    22    1
    13    17    18    2
    14     3     4   ar
    15     3     2   ar
    16     4     5   ar
    17    22    20    1
    18    18    19    2
    19     2     1   ar
    20     5     7    1
    21     5     6   ar
    22    19    20    1
    23    19    21    1
    24     1     6   ar
    25     1    23    1
    26    23    29   ar
    27    23    24   ar
    28    29    28   ar
    29    24    25   ar
    30    28    30    1
    31    28    26   ar
    32    25    26   ar
    33    26    27    1
