@<TRIPOS>MOLECULE
ZINC60094328_replica-1.pdb
 22 25 0 0 0
SMALL
GASTEIGER

@<TRIPOS>ATOM
      1  N2         0.6210   29.2760   56.4810 N.pl3   0  <0>0       -0.2993
      2  H5         1.5800   29.3800   56.5900 H       0  <0>0        0.1500
      3  C7         0.1110   28.7930   55.2930 C.2     0  <0>0        0.2118
      4  N1         0.2590   27.6040   54.7540 N.2     0  <0>0       -0.3803
      5  C5        -0.3040   27.2670   53.5740 C.2     0  <0>0        0.1390
      6  C4        -1.0660   28.2800   52.9480 C.2     0  <0>0        0.0587
      7  C6        -0.2240   26.0330   52.8890 C.2     0  <0>0        0.0284
      8  C3        -1.6990   28.0930   51.7450 C.2     0  <0>0       -0.0123
      9  S1        -0.9180   29.6290   54.0940 S.3     0  <0>0       -0.0380
     10  C2        -1.5990   26.8720   51.1030 C.3     0  <0>0        0.0527
     11  C1        -0.8590   25.8550   51.6890 C.2     0  <0>0       -0.0188
     12  C8        -0.2840   29.6300   57.5770 C.3     0  <0>0        0.1166
     13  C9         0.0510   31.0110   58.0790 C.ar    0  <0>0        0.0011
     14  C14        0.3920   31.2000   59.4050 C.ar    0  <0>0        0.0073
     15  C13        0.7070   32.4640   59.8680 C.ar    0  <0>0        0.0714
     16  C12        0.6700   33.5480   59.0040 C.ar    0  <0>0        0.1825
     17 Br          1.1820   32.7170   61.6810 Br      0  <0>0       -0.0457
     18  C11        0.3200   33.3590   57.6700 C.ar    0  <0>0        0.1767
     19  O1         0.9250   34.8740   59.2050 O.3     0  <0>0       -0.4341
     20  C10        0.0120   32.0880   57.2130 C.ar    0  <0>0        0.0376
     21  O2         0.3560   34.5660   57.0340 O.3     0  <0>0       -0.4346
     22  C15        1.1250   35.4290   57.8920 C.3     0  <0>0        0.4294
@<TRIPOS>BOND
     1    10    11    1
     2    10     8    1
     3    11     7    2
     4     8     6    2
     5     7     5    1
     6     6     5    1
     7     6     9    1
     8     5     4    2
     9     9     3    1
    10     4     3    2
    11     3     1    1
    12     1     2    1
    13     1    12    1
    14    21    18    1
    15    21    22    1
    16    20    18   ar
    17    20    13   ar
    18    12    13    1
    19    18    16   ar
    20    22    19    1
    21    13    14   ar
    22    16    19    1
    23    16    15   ar
    24    14    15   ar
    25    15    17    1
