@<TRIPOS>MOLECULE
ZINC66165761_replica-1.pdb
 25 26 0 0 0
SMALL
GASTEIGER

@<TRIPOS>ATOM
      1  C10       -1.0400   29.1420   58.7020 C.3     0  <0>0        0.1312
      2  N1         0.2590   29.8080   58.8110 N.pl3   0  <0>0       -0.3298
      3  H13        1.0570   29.2880   59.0000 H       0  <0>0        0.1469
      4  C7         0.3530   31.1940   58.6440 C.ar    0  <0>0        0.0449
      5  C6         0.7950   31.9920   59.6910 C.ar    0  <0>0        0.0174
      6  C5         0.8870   33.3600   59.5230 C.ar    0  <0>0        0.0382
      7  C4         0.5380   33.9370   58.3110 C.ar    0  <0>0        0.1386
      8  C9         0.0920   33.1410   57.2670 C.ar    0  <0>0        0.0382
      9  C8         0.0030   31.7720   57.4310 C.ar    0  <0>0        0.0174
     10  O1         0.6300   35.2840   58.1480 O.3     0  <0>0       -0.4755
     11  C3         1.3750   35.7530   57.0230 C.3     0  <0>0        0.2054
     12  C2         2.8720   35.6060   57.3050 C.3     0  <0>0        0.0473
     13  C1         3.6680   36.0580   56.0800 C.3     0  <0>0        0.0040
     14  C11       -0.8940   27.8700   57.8650 C.3     0  <0>0        0.1854
     15  C12       -0.6590   26.6750   58.7900 C.3     0  <0>0        0.0491
     16  O2         0.2160   28.0110   56.9760 O.3     0  <0>0       -0.4774
     17  C13        0.0010   27.7080   55.6690 C.ar    0  <0>0        0.1384
     18  C18        0.4320   26.4920   55.1580 C.ar    0  <0>0        0.0366
     19  C17        0.2080   26.1840   53.8290 C.ar    0  <0>0       -0.0012
     20  C16       -0.4330   27.0920   53.0070 C.ar    0  <0>0       -0.0223
     21  C15       -0.8580   28.3060   53.5120 C.ar    0  <0>0       -0.0012
     22  C14       -0.6420   28.6160   54.8420 C.ar    0  <0>0        0.0366
     23  C19       -0.6700   26.7560   51.5570 C.3     0  <0>0        0.0224
     24  C20       -1.0180   25.2720   51.4270 C.3     0  <0>0        0.0047
     25  C21       -1.8290   27.6000   51.0210 C.3     0  <0>0        0.0047
@<TRIPOS>BOND
     1    25    23    1
     2    24    23    1
     3    23    20    1
     4    20    21   ar
     5    20    19   ar
     6    21    22   ar
     7    19    18   ar
     8    22    17   ar
     9    18    17   ar
    10    17    16    1
    11    13    12    1
    12    16    14    1
    13    11    12    1
    14    11    10    1
    15     8     9   ar
    16     8     7   ar
    17     9     4   ar
    18    14     1    1
    19    14    15    1
    20    10     7    1
    21     7     6   ar
    22     4     2    1
    23     4     5   ar
    24     1     2    1
    25     2     3    1
    26     6     5   ar
