@<TRIPOS>MOLECULE
ZINC13088705_replica-1.pdb
 27 28 0 0 0
SMALL
GASTEIGER

@<TRIPOS>ATOM
      1  S1         7.4840   31.3400   60.2750 S.O2    0  <0>0        0.0599
      2  O1         7.6670   30.3680   59.2550 O.2     0  <0>0       -0.1530
      3  O2         7.8410   31.1000   61.6290 O.2     0  <0>0       -0.1530
      4  C6         8.3720   32.7750   59.7680 C.ar    0  <0>0        0.1179
      5  C5         9.2520   33.3830   60.6390 C.ar    0  <0>0        0.0261
      6  C4         9.9560   34.5200   60.2360 C.ar    0  <0>0        0.0808
      7  C3         9.7600   35.0360   58.9540 C.ar    0  <0>0        0.0021
      8  C2         8.8800   34.4160   58.0910 C.ar    0  <0>0       -0.0243
      9  C1         8.6700   34.9680   56.7040 C.3     0  <0>0        0.0307
     10  C7         8.1860   33.2890   58.4960 C.ar    0  <0>0       -0.0072
     11  C8         7.2230   32.6200   57.5510 C.3     0  <0>0        0.0321
     12  C20       10.9010   35.1750   61.1630 C.2     0  <0>0        0.3878
     13  O3        10.6880   36.3070   61.5470 O.co2   0  <0>0       -0.2406
     14  O4        11.9960   34.5140   61.5870 O.co2   0  <0>0       -0.2406
     15  N1         5.8750   31.7330   60.2710 N.3     0  <0>0       -0.1791
     16  H9         5.2620   31.2570   59.6890 H       0  <0>0        0.1488
     17  C9         5.3790   32.7980   61.1450 C.3     0  <0>0        0.0961
     18  C10        4.4780   33.7380   60.3440 C.3     0  <0>0        0.0452
     19  C11        5.2620   34.9570   59.9330 C.ar    0  <0>0       -0.0208
     20  C16        5.1180   35.4760   58.6590 C.ar    0  <0>0       -0.0045
     21  C15        5.8370   36.5940   58.2820 C.ar    0  <0>0       -0.0046
     22  C14        6.7020   37.1940   59.1790 C.ar    0  <0>0       -0.0225
     23  C13        6.8460   36.6770   60.4520 C.ar    0  <0>0       -0.0046
     24  C12        6.1230   35.5610   60.8310 C.ar    0  <0>0       -0.0045
     25  C17        7.4870   38.4120   58.7680 C.3     0  <0>0        0.0224
     26  C18        8.8530   38.3960   59.4570 C.3     0  <0>0        0.0047
     27  C19        7.6820   38.4050   57.2500 C.3     0  <0>0        0.0047
@<TRIPOS>BOND
     1     9     8    1
     2    27    25    1
     3    11    10    1
     4     8    10   ar
     5     8     7   ar
     6    21    20   ar
     7    21    22   ar
     8    10     4   ar
     9    20    19   ar
    10    25    22    1
    11    25    26    1
    12     7     6   ar
    13    22    23   ar
    14     2     1    2
    15    16    15    1
    16     4     1    1
    17     4     5   ar
    18    19    18    1
    19    19    24   ar
    20     6     5   ar
    21     6    12    1
    22    15     1    1
    23    15    17    1
    24     1     3    2
    25    18    17    1
    26    23    24   ar
    27    12    13   ar
    28    12    14   ar
