@<TRIPOS>MOLECULE
ZINC64326885_replica-1.pdb
 24 24 0 0 0
SMALL
GASTEIGER

@<TRIPOS>ATOM
      1  C3        -1.1270   29.2910   56.4220 C.2     0  <0>0        0.3353
      2  O1        -1.6840   29.0400   57.4640 O.2     0  <0>0       -0.2483
      3  C2        -0.2110   30.4840   56.3260 C.3     0  <0>0        0.1740
      4  C1        -0.7190   31.4310   55.2370 C.3     0  <0>0        0.0334
      5  N1        -0.1870   31.1860   57.6110 N.am    0  <0>0       -0.2624
      6  C12        0.9790   31.6540   58.1010 C.2     0  <0>0        0.4018
      7  O3         2.0080   31.4940   57.4760 O.2     0  <0>0       -0.2264
      8  H12       -1.0090   31.3140   58.1100 H       0  <0>0        0.1532
      9  O4         1.0000   32.3000   59.2830 O.3     0  <0>0       -0.4419
     10  C13        1.0520   33.7270   59.2410 C.3     0  <0>0        0.1378
     11  C14        0.3970   34.2990   60.5000 C.3     0  <0>0        0.0437
     12  C15        2.5110   34.1830   59.1720 C.3     0  <0>0        0.0437
     13  C16        0.3020   34.2280   58.0030 C.3     0  <0>0        0.0437
     14  O2        -1.3250   28.5080   55.3500 O.3     0  <0>0       -0.4465
     15  C4        -0.1620   28.0140   54.6840 C.3     0  <0>0        0.1935
     16  C5         0.5520   27.0050   55.5850 C.3     0  <0>0        0.0525
     17  C6        -0.5670   27.3400   53.3980 C.ar    0  <0>0        0.0470
     18  C11       -1.2690   28.0460   52.4370 C.ar    0  <0>0        0.1396
     19  C10       -1.6360   27.4290   51.2530 C.ar    0  <0>0        0.0317
     20  F1        -1.5910   29.3410   52.6520 F       0  <0>0       -0.2044
     21  C9        -1.3100   26.1040   51.0360 C.ar    0  <0>0        0.0319
     22  C8        -0.6120   25.3950   51.9990 C.ar    0  <0>0        0.1401
     23  C7        -0.2400   26.0140   53.1810 C.ar    0  <0>0        0.0311
     24  F2        -0.2920   24.1000   51.7860 F       0  <0>0       -0.2042
@<TRIPOS>BOND
     1    21    19   ar
     2    21    22   ar
     3    19    18   ar
     4    24    22    1
     5    22    23   ar
     6    18    20    1
     7    18    17   ar
     8    23    17   ar
     9    17    15    1
    10    15    14    1
    11    15    16    1
    12     4     3    1
    13    14     1    1
    14     3     1    1
    15     3     5    1
    16     1     2    2
    17     7     6    2
    18     5     6   am
    19     5     8    1
    20    13    10    1
    21     6     9    1
    22    12    10    1
    23    10     9    1
    24    10    11    1
