@<TRIPOS>MOLECULE
ZINC27093226_replica-1.pdb
 22 25 0 0 0
SMALL
GASTEIGER

@<TRIPOS>ATOM
      1  C1        -0.7680   25.1260   51.4970 C.3     0  <0>0        0.0268
      2  C2        -0.4390   26.0880   52.6100 C.2     0  <0>0       -0.0368
      3  C3         0.2820   25.6470   53.7090 C.2     0  <0>0       -0.0067
      4  C4         0.5910   26.5150   54.7370 C.2     0  <0>0        0.0163
      5  C5         0.1790   27.8380   54.6700 C.2     0  <0>0        0.0766
      6  C6        -0.5530   28.2890   53.5590 C.2     0  <0>0        0.1286
      7  C7        -0.8570   27.3970   52.5270 C.3     0  <0>0        0.0823
      8  N1        -0.8230   29.6050   53.7650 N.2     0  <0>0       -0.3836
      9  C8        -0.3060   29.9860   54.9080 C.2     0  <0>0        0.2111
     10  N2         0.3210   28.9320   55.5080 N.pl3   0  <0>0       -0.2813
     11  H1         0.8650   28.8290   56.4590 H       0  <0>0        0.1551
     12  S1        -0.4100   31.6150   55.5720 S.3     0  <0>0       -0.0596
     13  C9         1.1680   31.6960   56.4550 C.3     0  <0>0        0.1228
     14  C10        0.9160   32.0150   57.9060 C.2     0  <0>0        0.1295
     15  N4         0.8370   31.1220   58.9050 N.2     0  <0>0       -0.3854
     16  C14        0.6060   31.7530   60.0190 C.2     0  <0>0        0.2186
     17  N3         0.5250   33.1010   59.7900 N.pl3   0  <0>0       -0.2417
     18  S2         0.3390   31.6380   61.7720 S.3     0  <0>0       -0.0379
     19  C11        0.7290   33.2430   58.4200 C.3     0  <0>0        0.1858
     20  C12        0.2820   33.9060   60.8820 C.2     0  <0>0        0.0759
     21 Br          0.7410   34.8690   57.4550 Br      0  <0>0       -0.0516
     22  C13        0.1360   33.3820   62.0980 C.2     0  <0>0        0.0553
@<TRIPOS>BOND
     1     1     2    1
     2     7     2    1
     3     7     6    1
     4     2     3    2
     5     6     8    2
     6     6     5    1
     7     3     4    1
     8     8     9    2
     9     5     4    2
    10     5    10    1
    11     9    10    1
    12     9    12    1
    13    10    11    1
    14    12    13    1
    15    13    14    1
    16    21    19    1
    17    14    19    1
    18    14    15    2
    19    19    17    1
    20    15    16    2
    21    17    16    1
    22    17    20    1
    23    16    18    1
    24    20    22    2
    25    18    22    1
