@<TRIPOS>MOLECULE
ZINC05598908_replica-1.pdb
 24 27 0 0 0
SMALL
GASTEIGER

@<TRIPOS>ATOM
      1  C1         0.0930   30.7310   57.1160 C.2     0  <0>0       -0.0005
      2  C2        -0.6050   31.6010   56.2900 C.2     0  <0>0       -0.0026
      3  C3        -1.1530   31.1600   55.1050 C.2     0  <0>0       -0.0025
      4  C4        -1.0070   29.8300   54.7280 C.3     0  <0>0        0.1157
      5  C5        -0.2980   28.9520   55.5640 C.2     0  <0>0        0.0161
      6  C6         0.2500   29.4080   56.7580 C.2     0  <0>0       -0.0010
      7  C7        -0.1550   27.5490   55.1230 C.2     0  <0>0        0.0858
      8  N1         0.2540   26.6100   55.9480 N.pl3   0  <0>0       -0.0966
      9  C12       -0.4940   27.2450   53.7190 C.2     0  <0>0        0.0033
     10  C13       -1.1720   28.1520   53.0020 C.2     0  <0>0        0.0193
     11  N2        -1.5480   29.3520   53.5540 N.pl3   0  <0>0       -0.3307
     12  C14       -1.5720   27.9130   51.5660 C.3     0  <0>0        0.0406
     13  C15       -0.7440   26.7870   50.9530 C.3     0  <0>0        0.0063
     14  C16       -0.8100   25.5750   51.8920 C.3     0  <0>0        0.0051
     15  C17       -0.0410   25.9210   53.1670 C.3     0  <0>0        0.0286
     16  H16       -2.2210   29.8840   53.1020 H       0  <0>0        0.1471
     17  S1        -0.0010   26.7690   57.5760 S.O2    0  <0>0        0.0985
     18  O1         1.1790   27.3490   58.1170 O.2     0  <0>0       -0.1478
     19  O2        -1.2810   27.3650   57.7300 O.2     0  <0>0       -0.1478
     20  C8        -0.1180   25.1440   58.2460 C.ar    0  <0>0        0.1565
     21  S2        -0.1230   24.6300   59.9560 S.2     0  <0>0       -0.0664
     22  C11       -0.2730   22.8710   59.6890 C.ar    0  <0>0        0.0368
     23  C10       -0.3010   22.7940   58.3370 C.ar    0  <0>0        0.0089
     24  C9        -0.2210   23.9590   57.5970 C.ar    0  <0>0        0.0274
@<TRIPOS>BOND
     1    13    12    1
     2    13    14    1
     3    12    10    1
     4    14    15    1
     5    10    11    1
     6    10     9    2
     7    16    11    1
     8    15     9    1
     9    11     4    1
    10     9     7    1
    11     4     3    1
    12     4     5    1
    13     3     2    2
    14     7     5    2
    15     7     8    1
    16     5     6    1
    17     8    17    1
    18     2     1    1
    19     6     1    2
    20    17    19    2
    21    17    18    2
    22    17    20    1
    23    24    20   ar
    24    24    23   ar
    25    20    21   ar
    26    23    22   ar
    27    22    21   ar
