@<TRIPOS>MOLECULE
ZINC36957366_replica-1.pdb
 21 22 0 0 0
SMALL
GASTEIGER

@<TRIPOS>ATOM
      1  C1         8.4140   32.8800   59.9050 C.3     0  <0>0        0.0261
      2  C2         9.1180   34.1830   60.2870 C.3     0  <0>0        0.0919
      3  C3        10.3120   33.8740   61.1530 C.ar    0  <0>0       -0.0046
      4  C8        11.3390   34.7930   61.2680 C.ar    0  <0>0       -0.0030
      5  C7        12.4320   34.5110   62.0660 C.ar    0  <0>0       -0.0045
      6  C6        12.5030   33.3070   62.7420 C.ar    0  <0>0       -0.0225
      7  C5        11.4780   32.3860   62.6230 C.ar    0  <0>0       -0.0045
      8  C4        10.3830   32.6700   61.8290 C.ar    0  <0>0       -0.0030
      9  C9        13.6960   32.9980   63.6090 C.3     0  <0>0        0.0224
     10  C10       13.7940   31.4860   63.8220 C.3     0  <0>0        0.0047
     11  C11       14.9680   33.4990   62.9220 C.3     0  <0>0        0.0047
     12  N1         9.5610   34.8730   59.0730 N.pl3   0  <0>0       -0.3302
     13  H16       10.2070   34.4510   58.4840 H       0  <0>0        0.1471
     14  C12        9.0530   36.1400   58.7620 C.ar    0  <0>0        0.0505
     15  C17        8.4510   36.3670   57.5240 C.ar    0  <0>0        0.0383
     16  C16        7.9440   37.6240   57.2250 C.ar    0  <0>0        0.0074
     17  C15        8.0460   38.6480   58.1480 C.ar    0  <0>0        0.0006
     18  C14        8.6480   38.4230   59.3710 C.ar    0  <0>0        0.0013
     19  C13        9.1510   37.1720   59.6810 C.ar    0  <0>0        0.0148
     20  S1         8.3280   35.0620   56.3470 S.3     0  <0>0       -0.1115
     21  C18        6.8030   35.4320   55.4380 C.3     0  <0>0        0.0742
@<TRIPOS>BOND
     1    21    20    1
     2    20    15    1
     3    16    15   ar
     4    16    17   ar
     5    15    14   ar
     6    17    18   ar
     7    13    12    1
     8    14    12    1
     9    14    19   ar
    10    12     2    1
    11    18    19   ar
    12     1     2    1
    13     2     3    1
    14     3     4   ar
    15     3     8   ar
    16     4     5   ar
    17     8     7   ar
    18     5     6   ar
    19     7     6   ar
    20     6     9    1
    21    11     9    1
    22     9    10    1
