@<TRIPOS>MOLECULE
ZINC34990206_replica-1.pdb
 22 23 0 0 0
SMALL
GASTEIGER

@<TRIPOS>ATOM
      1  N1         0.3140   29.1210   54.8100 N.pl3   0  <0>0       -0.3299
      2  H14        1.0280   28.4790   54.6720 H       0  <0>0        0.1471
      3  C4        -0.8790   29.0830   53.9600 C.3     0  <0>0        0.0919
      4  C3        -2.1320   29.0750   54.8380 C.3     0  <0>0        0.0241
      5  C2        -2.9260   30.3610   54.6050 C.3     0  <0>0        0.0020
      6  C1        -3.0870   31.1080   55.9310 C.3     0  <0>0        0.0001
      7  C5        -0.8520   27.8380   53.1100 C.ar    0  <0>0       -0.0046
      8  C10       -0.1840   26.7130   53.5540 C.ar    0  <0>0       -0.0027
      9  C9        -0.1620   25.5700   52.7770 C.ar    0  <0>0       -0.0003
     10  C8        -0.8020   25.5550   51.5510 C.ar    0  <0>0       -0.0000
     11  C7        -1.4670   26.6830   51.1050 C.ar    0  <0>0       -0.0003
     12  C6        -1.4920   27.8240   51.8850 C.ar    0  <0>0       -0.0027
     13  C11        0.4230   30.0830   55.8170 C.ar    0  <0>0        0.0556
     14  C16        0.3450   29.7040   57.1520 C.ar    0  <0>0        0.0724
     15  C15        0.4600   30.6580   58.1470 C.ar    0  <0>0        0.0367
     16 Cl          0.1120   28.0360   57.5710 Cl      0  <0>0       -0.0809
     17  C14        0.6400   31.9880   57.8130 C.ar    0  <0>0        0.1438
     18  C13        0.7110   32.3680   56.4850 C.ar    0  <0>0        0.0254
     19  C12        0.6040   31.4190   55.4870 C.ar    0  <0>0        0.0169
     20  N2         0.7550   33.0070   58.8800 N.pl3   0  <0>0        0.0577
     21  O1         1.2290   32.7110   59.9510 O.2     0  <0>0       -0.1261
     22  O2         0.3740   34.1370   58.6790 O.2     0  <0>0       -0.1261
@<TRIPOS>BOND
     1    11    10   ar
     2    11    12   ar
     3    10     9   ar
     4    12     7   ar
     5     9     8   ar
     6     7     8   ar
     7     7     3    1
     8     3     1    1
     9     3     4    1
    10     5     4    1
    11     5     6    1
    12     2     1    1
    13     1    13    1
    14    19    13   ar
    15    19    18   ar
    16    13    14   ar
    17    18    17   ar
    18    14    16    1
    19    14    15   ar
    20    17    15   ar
    21    17    20    1
    22    22    20    2
    23    20    21    2
