@<TRIPOS>MOLECULE
ZINC48395882_replica-1.pdb
 19 20 0 0 0
SMALL
GASTEIGER

@<TRIPOS>ATOM
      1  C5         7.2010   35.1640   58.0550 C.2     0  <0>0        0.2108
      2  N1         6.3310   34.8510   58.9840 N.2     0  <0>0       -0.3832
      3  C6         5.0780   35.1570   58.5570 C.2     0  <0>0        0.1342
      4  C7         3.8120   35.0340   59.1350 C.2     0  <0>0        0.0410
      5  C8         2.6970   35.4430   58.4340 C.2     0  <0>0        0.0597
      6  C9         2.8250   35.9760   57.1590 C.2     0  <0>0        0.0090
      7  C10        4.0700   36.1040   56.5760 C.2     0  <0>0        0.0013
      8  C11        5.2000   35.6980   57.2680 C.3     0  <0>0        0.1504
      9  N2         6.5550   35.6950   56.9760 N.pl3   0  <0>0       -0.2678
     10 Cl          1.1240   35.2890   59.1510 Cl      0  <0>0       -0.0822
     11  S1         8.9440   34.9380   58.1830 S.3     0  <0>0       -0.0671
     12  C4         9.2250   34.6860   59.9570 C.3     0  <0>0        0.0659
     13  C2        10.4460   35.4950   60.3990 C.3     0  <0>0        0.0113
     14  C1         9.9840   36.7920   61.0660 C.3     0  <0>0        0.0009
     15  C3        11.2680   34.6730   61.3950 C.3     0  <0>0        0.0009
     16  C12        7.1780   36.1730   55.7380 C.3     0  <0>0        0.1262
     17  C13        7.3410   37.6940   55.8040 C.3     0  <0>0        0.1637
     18  O1         8.5670   38.0120   56.4650 O.3     0  <0>0       -0.3493
     19  C14        8.4010   38.7840   57.6570 C.3     0  <0>0        0.1742
@<TRIPOS>BOND
     1    16    17    1
     2    16     9    1
     3    17    18    1
     4    18    19    1
     5     7     6    2
     6     7     8    1
     7     9     8    1
     8     9     1    1
     9     6     5    1
    10     8     3    1
    11     1    11    1
    12     1     2    2
    13    11    12    1
    14     5     4    2
    15     5    10    1
    16     3     2    2
    17     3     4    1
    18    12    13    1
    19    13    14    1
    20    13    15    1
