@<TRIPOS>MOLECULE
ZINC51717073_replica-1.pdb
 21 22 0 0 0
SMALL
GASTEIGER

@<TRIPOS>ATOM
      1  C4        -0.1090   32.0420   57.0170 C.2     0  <0>0        0.1763
      2  C5         0.3270   31.3420   58.1460 C.3     0  <0>0        0.1333
      3  C6         0.4160   29.9650   58.0770 C.2     0  <0>0        0.1373
      4  N2         0.0890   29.3490   56.9510 N.2     0  <0>0       -0.3453
      5  C7        -0.3220   30.0370   55.8920 C.1     0  <0>0        0.1444
      6  N3        -0.4270   31.3620   55.9200 N.2     0  <0>0       -0.3285
      7  C8        -0.6770   29.3140   54.6570 C.ar    0  <0>0        0.1146
      8  S1        -0.1220   27.7130   54.0910 S.2     0  <0>0       -0.0793
      9  C11       -1.0390   27.6560   52.5600 C.ar    0  <0>0        0.0080
     10  C10       -1.6950   28.8470   52.5750 C.ar    0  <0>0        0.0035
     11  C9        -1.5140   29.6970   53.6410 C.ar    0  <0>0        0.0188
     12  C12       -1.0740   26.5690   51.5170 C.3     0  <0>0        0.0330
     13  C13       -0.5480   25.2660   52.1210 C.3     0  <0>0        0.0056
     14  C14        0.8810   29.1720   59.2710 C.3     0  <0>0        0.1975
     15  O1         0.3050   29.7160   60.4590 O.3     0  <0>0       -0.3439
     16  C15       -0.9060   29.0750   60.8640 C.3     0  <0>0        0.1747
     17  N1        -0.2130   33.4220   57.0430 N.pl3   0  <0>0       -0.3108
     18  H8        -1.0880   33.8420   57.0650 H       0  <0>0        0.1489
     19  C3         0.9960   34.2490   57.0370 C.3     0  <0>0        0.0888
     20  C2         0.9310   35.2550   58.1880 C.3     0  <0>0        0.0212
     21  C1         1.8560   34.7980   59.3180 C.3     0  <0>0        0.0018
@<TRIPOS>BOND
     1    12    13    1
     2    12     9    1
     3     9    10   ar
     4     9     8   ar
     5    10    11   ar
     6    11     7   ar
     7     8     7   ar
     8     7     5    1
     9     5     6    2
    10     5     4    2
    11     6     1    2
    12     4     3    2
    13     1    17    1
    14     1     2    1
    15    19    17    1
    16    19    20    1
    17    17    18    1
    18     3     2    1
    19     3    14    1
    20    20    21    1
    21    14    15    1
    22    15    16    1
