@<TRIPOS>MOLECULE
ZINC01617201_replica-1.pdb
 22 23 0 0 0
SMALL
GASTEIGER

@<TRIPOS>ATOM
      1  C9         9.9330   34.7060   60.5510 C.2     0  <0>0        0.0528
      2  C10        9.0710   34.0740   59.6800 C.2     0  <0>0        0.0608
      3 Cl          8.9040   32.3460   59.7220 Cl      0  <0>0       -0.0821
      4  C6        10.8150   33.9040   61.4320 C.ar    0  <0>0        0.0042
      5  C5        10.3500   32.7140   61.9900 C.ar    0  <0>0        0.0032
      6  C4        11.1730   31.9700   62.8090 C.ar    0  <0>0        0.0369
      7  C3        12.4650   32.4050   63.0770 C.ar    0  <0>0        0.1386
      8  C8        12.9310   33.5890   62.5230 C.ar    0  <0>0        0.0369
      9  C7        12.1140   34.3350   61.7010 C.ar    0  <0>0        0.0032
     10  O1        13.2730   31.6690   63.8850 O.3     0  <0>0       -0.4755
     11  C2        13.0910   30.2520   63.8660 C.3     0  <0>0        0.2055
     12  C1        12.6980   29.7690   65.2630 C.3     0  <0>0        0.0512
     13  C18        9.9760   36.1190   60.6040 C.2     0  <0>0        0.2350
     14  O3         9.3940   36.7120   61.4910 O.2     0  <0>0       -0.2831
     15  C11        8.2930   34.8620   58.7180 C.ar    0  <0>0        0.0109
     16  C16        6.9600   35.1950   58.9980 C.ar    0  <0>0        0.0040
     17  C15        6.2370   35.9400   58.0950 C.ar    0  <0>0        0.0369
     18  C14        6.8220   36.3540   56.9030 C.ar    0  <0>0        0.1387
     19  C13        8.1440   36.0280   56.6210 C.ar    0  <0>0        0.0369
     20  C12        8.8790   35.2870   57.5190 C.ar    0  <0>0        0.0040
     21  O2         6.1010   37.0840   56.0140 O.3     0  <0>0       -0.4714
     22  C17        4.8330   36.5570   55.6190 C.3     0  <0>0        0.2525
@<TRIPOS>BOND
     1    22    21    1
     2    21    18    1
     3    19    18   ar
     4    19    20   ar
     5    18    17   ar
     6    20    15   ar
     7    17    16   ar
     8    15    16   ar
     9    15     2    1
    10     2     3    1
    11     2     1    2
    12     1    13    1
    13     1     4    1
    14    13    14    2
    15     4     9   ar
    16     4     5   ar
    17     9     8   ar
    18     5     6   ar
    19     8     7   ar
    20     6     7   ar
    21     7    10    1
    22    11    10    1
    23    11    12    1
