@<TRIPOS>MOLECULE
ZINC59850646_replica-1.pdb
 23 24 0 0 0
SMALL
GASTEIGER

@<TRIPOS>ATOM
      1  N1         0.1960   30.9940   55.2730 N.am    0  <0>0       -0.2863
      2  C8         0.9190   31.7440   56.1270 C.2     0  <0>0        0.3012
      3  O1         0.9750   31.4450   57.3040 O.2     0  <0>0       -0.2528
      4  N2         1.5830   32.8280   55.6760 N.am    0  <0>0       -0.2863
      5  H11        0.0870   31.2760   54.3520 H       0  <0>0        0.1512
      6  H12        1.4810   33.1090   54.7530 H       0  <0>0        0.1512
      7  C3        -0.4280   29.7520   55.7380 C.3     0  <0>0        0.1015
      8  C2        -1.8330   30.0520   56.2640 C.3     0  <0>0        0.0247
      9  C1        -2.4000   28.8050   56.9450 C.3     0  <0>0        0.0021
     10  C4        -0.5180   28.7760   54.5930 C.ar    0  <0>0        0.0251
     11  S1         0.2950   27.2000   54.3920 S.2     0  <0>0       -0.0892
     12  C7        -0.3800   26.7700   52.7970 C.ar    0  <0>0        0.0352
     13  C6        -1.1620   27.8430   52.5250 C.ar    0  <0>0        0.0072
     14  C5        -1.2330   28.8710   53.4460 C.ar    0  <0>0        0.0043
     15  C9         2.4560   33.5810   56.5800 C.3     0  <0>0        0.1014
     16  C10        3.8770   33.5020   56.0850 C.ar    0  <0>0        0.0251
     17  S2         5.3000   32.7590   56.8660 S.2     0  <0>0       -0.0892
     18  C13        6.5040   33.1300   55.6010 C.ar    0  <0>0        0.0352
     19  C12        5.7540   33.7900   54.6860 C.ar    0  <0>0        0.0072
     20  C11        4.4070   33.9810   54.9330 C.ar    0  <0>0        0.0043
     21  C14        2.0090   35.0440   56.6190 C.3     0  <0>0        0.0228
     22  C15        0.5800   35.1270   57.1580 C.3     0  <0>0        0.0021
     23  C16        2.9460   35.8390   57.5310 C.3     0  <0>0        0.0021
@<TRIPOS>BOND
     1    13    12   ar
     2    13    14   ar
     3    12    11   ar
     4    14    10   ar
     5     5     1    1
     6    11    10   ar
     7    10     7    1
     8    19    20   ar
     9    19    18   ar
    10     6     4    1
    11    20    16   ar
    12     1     7    1
    13     1     2   am
    14    18    17   ar
    15     4     2   am
    16     4    15    1
    17     7     8    1
    18    16    15    1
    19    16    17   ar
    20     2     3    2
    21     8     9    1
    22    15    21    1
    23    21    22    1
    24    21    23    1
