@<TRIPOS>MOLECULE
ZINC40269525_replica-1.pdb
 18 18 0 0 0
SMALL
GASTEIGER

@<TRIPOS>ATOM
      1  C6         5.4990   35.7130   57.2270 C.ar    0  <0>0        0.0606
      2  C7         4.8440   35.9090   58.4340 C.ar    0  <0>0        0.1418
      3  C8         3.4630   36.0290   58.4610 C.ar    0  <0>0        0.0737
      4  C9         2.7370   35.9540   57.2820 C.ar    0  <0>0        0.1448
      5  C10        3.3920   35.7590   56.0760 C.ar    0  <0>0        0.0737
      6  C11        4.7740   35.6430   56.0470 C.ar    0  <0>0        0.1418
      7  C5         7.0000   35.5820   57.1970 C.3     0  <0>0        0.1079
      8 Cl          7.4520   34.0380   56.3850 Cl      0  <0>0       -0.1100
      9  C4         7.5990   36.7590   56.4260 C.3     0  <0>0        0.0209
     10  C2         8.5990   37.4980   57.3170 C.3     0  <0>0        0.0016
     11  C1         7.9920   38.8260   57.7750 C.3     0  <0>0        0.0001
     12  C3         8.9250   36.6380   58.5390 C.3     0  <0>0        0.0001
     13  O1         5.4150   35.4570   54.8640 O.3     0  <0>0       -0.4715
     14  C12        4.7980   34.5800   53.9210 C.3     0  <0>0        0.2525
     15  O3         5.5560   35.9820   59.5890 O.3     0  <0>0       -0.4715
     16  C14        5.6800   37.2720   60.1930 C.3     0  <0>0        0.2525
     17  O2         1.3830   36.0710   57.3090 O.3     0  <0>0       -0.4712
     18  C13        0.6430   34.9490   57.7930 C.3     0  <0>0        0.2525
@<TRIPOS>BOND
     1    14    13    1
     2    13     6    1
     3     6     5   ar
     4     6     1   ar
     5     5     4   ar
     6     8     7    1
     7     9     7    1
     8     9    10    1
     9     7     1    1
    10     1     2   ar
    11     4    17    1
    12     4     3   ar
    13    17    18    1
    14    10    11    1
    15    10    12    1
    16     2     3   ar
    17     2    15    1
    18    15    16    1
