@<TRIPOS>MOLECULE
ZINC08861490_replica-1.pdb
 25 27 0 0 0
SMALL
GASTEIGER

@<TRIPOS>ATOM
      1  C7         0.9060   32.2300   59.2440 C.ar    0  <0>0        0.1223
      2  C8         0.7210   30.9460   59.7260 C.ar    0  <0>0        0.0215
      3  C9         0.5090   29.9020   58.8510 C.ar    0  <0>0        0.0205
      4  C10        0.4810   30.1430   57.4750 C.ar    0  <0>0        0.0814
      5  C11        0.6730   31.4400   56.9960 C.ar    0  <0>0        0.0205
      6  C12        0.8790   32.4760   57.8830 C.ar    0  <0>0        0.0215
      7  S1         1.1760   33.5580   60.3710 S.O2    0  <0>0        0.0633
      8  O1        -0.0840   34.1900   60.5630 O.2     0  <0>0       -0.1528
      9  O2         1.9350   33.0300   61.4490 O.2     0  <0>0       -0.1528
     10  N1         2.1440   34.6610   59.6050 N.3     0  <0>0       -0.1555
     11  C4         3.5980   34.4630   59.5360 C.3     0  <0>0        0.0958
     12  C3         4.0400   34.5460   58.0720 C.3     0  <0>0        0.0192
     13  C2         3.5570   35.8690   57.4720 C.3     0  <0>0        0.0029
     14  C1         4.0260   35.9710   56.0200 C.3     0  <0>0        0.0001
     15  C6         2.0280   35.9260   57.5210 C.3     0  <0>0        0.0192
     16  C5         1.5650   35.8560   58.9740 C.3     0  <0>0        0.0958
     17  N2         0.2720   29.1100   56.6010 N.2     0  <0>0       -0.2438
     18  C13        0.1580   29.3510   55.3260 C.2     0  <0>0        0.0988
     19  C14       -0.0670   28.2410   54.3850 C.ar    0  <0>0        0.0192
     20  C19        0.4950   26.9850   54.6330 C.ar    0  <0>0        0.0021
     21  C18        0.2840   25.9520   53.7450 C.ar    0  <0>0        0.0067
     22  C17       -0.4860   26.1540   52.6120 C.ar    0  <0>0        0.0346
     23  C16       -1.0510   27.3940   52.3630 C.ar    0  <0>0        0.0067
     24 Br         -0.7680   24.7310   51.3980 Br      0  <0>0       -0.0490
     25  C15       -0.8490   28.4360   53.2430 C.ar    0  <0>0        0.0021
@<TRIPOS>BOND
     1    24    22    1
     2    23    22   ar
     3    23    25   ar
     4    22    21   ar
     5    25    19   ar
     6    21    20   ar
     7    19    20   ar
     8    19    18    1
     9    18    17    2
    10    14    13    1
    11    17     4    1
    12     5     4   ar
    13     5     6   ar
    14    13    15    1
    15    13    12    1
    16     4     3   ar
    17    15    16    1
    18     6     1   ar
    19    12    11    1
    20     3     2   ar
    21    16    10    1
    22     1     2   ar
    23     1     7    1
    24    11    10    1
    25    10     7    1
    26     7     8    2
    27     7     9    2
