@<TRIPOS>MOLECULE
ZINC37215955_replica-1.pdb
 22 23 0 0 0
SMALL
GASTEIGER

@<TRIPOS>ATOM
      1  C16       11.9590   33.3180   62.6490 C.3     0  <0>0        0.3090
      2  C17       13.2350   32.7460   63.1070 C.1     0  <0>0        0.1218
      3  N2        14.2200   32.3050   63.4610 N.1     0  <0>0       -0.1920
      4  O1        12.1690   34.6630   62.2120 O.3     0  <0>0       -0.4593
      5  C13       11.2010   35.2190   61.4370 C.ar    0  <0>0        0.1401
      6  C12       10.6460   36.4410   61.7870 C.ar    0  <0>0        0.0367
      7  C11        9.6630   37.0030   60.9970 C.ar    0  <0>0        0.0004
      8  C10        9.2300   36.3480   59.8580 C.ar    0  <0>0       -0.0044
      9  C15        9.7770   35.1280   59.5110 C.ar    0  <0>0        0.0004
     10  C14       10.7650   34.5640   60.2930 C.ar    0  <0>0        0.0367
     11  C8         8.1570   36.9650   58.9980 C.3     0  <0>0        0.0919
     12  C9         8.6820   38.2620   58.3790 C.3     0  <0>0        0.0261
     13  N1         7.7840   36.0310   57.9350 N.pl3   0  <0>0       -0.3309
     14  H8         8.4390   35.4040   57.5890 H       0  <0>0        0.1471
     15  C6         6.4870   36.0430   57.4170 C.ar    0  <0>0        0.0405
     16  C5         6.2820   36.2340   56.0570 C.ar    0  <0>0       -0.0088
     17  C4         4.9990   36.2450   55.5480 C.ar    0  <0>0       -0.0034
     18  C18        7.4600   36.4300   55.1370 C.3     0  <0>0        0.0323
     19  C3         3.9170   36.0650   56.3910 C.ar    0  <0>0       -0.0045
     20  C2         4.1180   35.8740   57.7460 C.ar    0  <0>0       -0.0206
     21  C1         2.9360   35.6780   58.6610 C.3     0  <0>0        0.0311
     22  C7         5.3980   35.8680   58.2620 C.ar    0  <0>0        0.0097
@<TRIPOS>BOND
     1    18    16    1
     2    17    16   ar
     3    17    19   ar
     4    16    15   ar
     5    19    20   ar
     6    15    13    1
     7    15    22   ar
     8    14    13    1
     9    20    22   ar
    10    20    21    1
    11    13    11    1
    12    12    11    1
    13    11     8    1
    14     9     8   ar
    15     9    10   ar
    16     8     7   ar
    17    10     5   ar
    18     7     6   ar
    19     5     6   ar
    20     5     4    1
    21     4     1    1
    22     1     2    1
    23     2     3    3
