@<TRIPOS>MOLECULE
ZINC03315890_replica-1.pdb
 30 32 0 0 0
SMALL
GASTEIGER

@<TRIPOS>ATOM
      1  C1         5.3160   34.9510   58.9010 C.2     0  <0>0        0.0118
      2  C2         6.2640   34.3370   58.2190 C.2     0  <0>0        0.0389
      3  C3         6.9920   35.0260   57.0820 C.3     0  <0>0        0.1567
      4  C4         8.4960   34.8090   57.2960 C.3     0  <0>0        0.1121
      5  N1         8.7530   33.3910   57.5430 N.am    0  <0>0       -0.3129
      6  C5         7.8640   32.5940   58.1520 C.2     0  <0>0        0.1351
      7  S1         8.3010   30.9720   58.4830 S.2     0  <0>0       -0.0185
      8  N2         6.6400   33.0230   58.5140 N.am    0  <0>0       -0.2987
      9  H5         9.5980   33.0120   57.2550 H       0  <0>0        0.1487
     10  H6         6.0270   32.4270   58.9720 H       0  <0>0        0.1536
     11  C13        6.5710   34.4240   55.7660 C.2     0  <0>0        0.3242
     12  O2         6.8090   33.2630   55.5290 O.2     0  <0>0       -0.2496
     13  O3         5.9320   35.1780   54.8570 O.3     0  <0>0       -0.4432
     14  C14        4.6570   34.6830   54.3700 C.3     0  <0>0        0.2350
     15  C15        3.6250   34.7950   55.4610 C.ar    0  <0>0        0.0213
     16  C20        3.3000   36.0340   55.9810 C.ar    0  <0>0       -0.0007
     17  C19        2.3530   36.1370   56.9830 C.ar    0  <0>0       -0.0002
     18  C18        1.7300   35.0010   57.4650 C.ar    0  <0>0       -0.0000
     19  C17        2.0540   33.7620   56.9450 C.ar    0  <0>0       -0.0002
     20  C16        2.9980   33.6600   55.9400 C.ar    0  <0>0       -0.0007
     21  C6         8.9560   35.6170   58.4810 C.ar    0  <0>0        0.0306
     22  C11        8.4920   36.9110   58.6610 C.ar    0  <0>0        0.1418
     23  C10        8.9180   37.6540   59.7540 C.ar    0  <0>0        0.0368
     24  C9         9.8020   37.1010   60.6600 C.ar    0  <0>0        0.0031
     25  C8        10.2630   35.8090   60.4790 C.ar    0  <0>0       -0.0001
     26  C7         9.8370   35.0670   59.3930 C.ar    0  <0>0        0.0003
     27  O1         7.6220   37.4520   57.7690 O.3     0  <0>0       -0.4239
     28  C12        7.9960   38.6940   57.1680 C.3     0  <0>0        0.5086
     29  F1         9.3300   38.6260   56.7500 F       0  <0>0       -0.1550
     30  F2         7.1740   38.9450   56.0650 F       0  <0>0       -0.1550
@<TRIPOS>BOND
     1    14    13    1
     2    14    15    1
     3    13    11    1
     4    15    20   ar
     5    15    16   ar
     6    12    11    2
     7    11     3    1
     8    20    19   ar
     9    16    17   ar
    10    30    28    1
    11    29    28    1
    12    19    18   ar
    13    17    18   ar
    14     3     4    1
    15     3     2    1
    16    28    27    1
    17     9     5    1
    18     4     5    1
    19     4    21    1
    20     5     6    1
    21    27    22    1
    22     6     7    2
    23     6     8    1
    24     2     8    1
    25     2     1    2
    26    21    22   ar
    27    21    26   ar
    28     8    10    1
    29    22    23   ar
    30    26    25   ar
    31    23    24   ar
    32    25    24   ar
