@<TRIPOS>MOLECULE
ZINC50003079_replica-1.pdb
 22 23 0 0 0
SMALL
GASTEIGER

@<TRIPOS>ATOM
      1  C8        -1.5330   30.8110   55.7720 C.3     0  <0>0       -0.0185
      2  C5        -1.8080   29.6750   56.7230 C.ar    0  <0>0       -0.0404
      3  C4        -2.8420   28.7950   56.4670 C.ar    0  <0>0       -0.0066
      4  C3        -3.0940   27.7520   57.3390 C.ar    0  <0>0       -0.0046
      5  C2        -2.3120   27.5900   58.4670 C.ar    0  <0>0       -0.0219
      6  C1        -2.5870   26.4530   59.4170 C.3     0  <0>0        0.0310
      7  C7        -1.2810   28.4730   58.7250 C.ar    0  <0>0       -0.0046
      8  C6        -1.0260   29.5130   57.8510 C.ar    0  <0>0       -0.0066
      9  C9        -0.6670   30.3090   54.6150 C.3     0  <0>0        0.0738
     10  N1        -1.5270   29.7730   53.5560 N.pl3   0  <0>0       -0.3076
     11  C10       -2.6620   30.5610   53.0670 C.3     0  <0>0        0.1121
     12  C11       -1.2660   28.5130   53.0150 C.ar    0  <0>0        0.0478
     13  C16       -0.4960   27.5970   53.7220 C.ar    0  <0>0        0.0142
     14  C15       -0.2450   26.3500   53.1860 C.ar    0  <0>0       -0.0030
     15  C14       -0.7480   26.0160   51.9420 C.ar    0  <0>0       -0.0218
     16  C13       -1.5090   26.9270   51.2330 C.ar    0  <0>0       -0.0030
     17  C17       -0.4660   24.6560   51.3570 C.3     0  <0>0        0.0310
     18  C12       -1.7700   28.1740   51.7650 C.ar    0  <0>0        0.0142
     19  N2        -0.8250   31.8850   56.4820 N.4     0  <0>0        0.3873
     20  C18        0.5150   32.0540   55.9040 C.3     0  <0>0       -0.1050
     21  H21       -1.3420   32.7460   56.3900 H       0  <0>0       -0.0840
     22  H25       -0.7420   31.6450   57.4590 H       0  <0>0       -0.0840
@<TRIPOS>BOND
     1    16    18   ar
     2    16    15   ar
     3    17    15    1
     4    18    12   ar
     5    15    14   ar
     6    12    10    1
     7    12    13   ar
     8    11    10    1
     9    14    13   ar
    10    10     9    1
    11     9     1    1
    12     1    19    1
    13     1     2    1
    14    20    19    1
    15    21    19    1
    16     3     2   ar
    17     3     4   ar
    18    19    22    1
    19     2     8   ar
    20     4     5   ar
    21     8     7   ar
    22     5     7   ar
    23     5     6    1
