@<TRIPOS>MOLECULE
ZINC07742393_replica-1.pdb
 29 31 0 0 0
SMALL
GASTEIGER

@<TRIPOS>ATOM
      1  C9        -1.0320   30.2300   54.7150 C.ar    0  <0>0        0.1865
      2  N2        -1.9110   30.4920   55.6630 N.ar    0  <0>0       -0.1249
      3  N3        -1.5800   31.3540   56.6830 N.ar    0  <0>0       -0.1331
      4  C10       -0.3890   31.9220   56.7020 C.ar    0  <0>0        0.1610
      5  S1         0.3520   31.2340   55.2290 S.2     0  <0>0       -0.0242
      6  S2         0.2890   33.0560   57.8690 S.3     0  <0>0       -0.0782
      7  C11        1.1250   34.2950   56.8420 C.3     0  <0>0        0.1299
      8  C12        0.8220   35.6940   57.3820 C.3     0  <0>0        0.0218
      9  C13        2.6120   34.0540   56.8750 C.2     0  <0>0        0.2328
     10  O1         3.2070   33.7950   55.8500 O.2     0  <0>0       -0.2742
     11  N4         3.2810   34.1270   58.0430 N.am    0  <0>0       -0.2997
     12  H15        2.8050   34.3340   58.8620 H       0  <0>0        0.1498
     13  C14        4.7270   33.8920   58.0750 C.3     0  <0>0        0.1163
     14  C15        5.4340   35.1650   58.4600 C.ar    0  <0>0       -0.0026
     15  C20        6.4910   35.6260   57.6970 C.ar    0  <0>0       -0.0026
     16  C19        7.1410   36.7940   58.0500 C.ar    0  <0>0       -0.0003
     17  C18        6.7340   37.5010   59.1660 C.ar    0  <0>0       -0.0000
     18  C17        5.6760   37.0400   59.9280 C.ar    0  <0>0       -0.0003
     19  C16        5.0230   35.8750   59.5730 C.ar    0  <0>0       -0.0026
     20  N1        -1.1520   29.3970   53.6080 N.pl3   0  <0>0       -0.2916
     21  H11       -1.5720   29.7240   52.7980 H       0  <0>0        0.1541
     22  C6        -0.6690   28.0870   53.6640 C.ar    0  <0>0        0.0454
     23  C5        -0.0030   27.6380   54.7980 C.ar    0  <0>0        0.0143
     24  C4         0.4730   26.3420   54.8490 C.ar    0  <0>0        0.0009
     25  C3         0.2860   25.4920   53.7750 C.ar    0  <0>0       -0.0045
     26  C2        -0.3760   25.9350   52.6450 C.ar    0  <0>0       -0.0246
     27  C1        -0.5770   25.0060   51.4760 C.3     0  <0>0        0.0307
     28  C7        -0.8540   27.2300   52.5860 C.ar    0  <0>0       -0.0123
     29  C8        -1.5770   27.7120   51.3540 C.3     0  <0>0        0.0320
@<TRIPOS>BOND
     1    29    28    1
     2    27    26    1
     3    28    26   ar
     4    28    22   ar
     5    26    25   ar
     6    21    20    1
     7    20    22    1
     8    20     1    1
     9    22    23   ar
    10    25    24   ar
    11     1     5   ar
    12     1     2   ar
    13    23    24   ar
    14     5     4   ar
    15     2     3   ar
    16    10     9    2
    17     3     4   ar
    18     4     6    1
    19     7     9    1
    20     7     8    1
    21     7     6    1
    22     9    11   am
    23    15    16   ar
    24    15    14   ar
    25    11    13    1
    26    11    12    1
    27    16    17   ar
    28    13    14    1
    29    14    19   ar
    30    17    18   ar
    31    19    18   ar
