@<TRIPOS>MOLECULE
ZINC08775406_replica-1.pdb
 32 35 0 0 0
SMALL
GASTEIGER

@<TRIPOS>ATOM
      1  C8         9.9480   34.7570   60.4640 C.ar    0  <0>0        0.0967
      2  C9         9.2850   33.5470   60.7520 C.ar    0  <0>0       -0.0052
      3  C10       10.1040   32.7970   61.5210 C.ar    0  <0>0        0.0955
      4  N1        11.2530   33.4970   61.7110 N.ar    0  <0>0       -0.2286
      5  N2        11.1310   34.7220   61.0430 N.ar    0  <0>0       -0.1655
      6  C17        7.9030   33.1620   60.2880 C.3     0  <0>0       -0.0505
      7  N3         7.9620   32.7710   58.8670 N.4     0  <0>0        0.3904
      8  H27        8.4750   31.8860   58.7790 H       0  <0>0       -0.0835
      9  H28        8.4490   33.5020   58.3350 H       0  <0>0       -0.0835
     10  C18        6.6010   32.6010   58.3260 C.3     0  <0>0       -0.0351
     11  C19        6.5390   31.3180   57.4950 C.3     0  <0>0       -0.0188
     12  C20        6.2630   33.7820   57.4530 C.ar    0  <0>0       -0.0080
     13  C25        5.5160   34.8320   57.9650 C.ar    0  <0>0        0.1327
     14  C24        5.2070   35.9190   57.1580 C.ar    0  <0>0        0.0365
     15  C23        5.6450   35.9520   55.8490 C.ar    0  <0>0        0.0031
     16  C22        6.3900   34.9030   55.3410 C.ar    0  <0>0       -0.0002
     17  C21        6.7030   33.8220   56.1440 C.ar    0  <0>0       -0.0033
     18  O1         5.0860   34.7980   59.2530 O.3     0  <0>0       -0.4718
     19  C26        5.4970   35.8700   60.1040 C.3     0  <0>0        0.2524
     20  C5         9.4080   35.8750   59.6530 C.ar    0  <0>0        0.0190
     21  C4         9.2350   35.7220   58.2780 C.ar    0  <0>0        0.0012
     22  C3         8.7310   36.7650   57.5280 C.ar    0  <0>0       -0.0042
     23  C2         8.3970   37.9610   58.1390 C.ar    0  <0>0       -0.0218
     24  C1         7.8480   39.0970   57.3140 C.3     0  <0>0        0.0310
     25  C7         8.5670   38.1190   59.5020 C.ar    0  <0>0       -0.0042
     26  C6         9.0650   37.0810   60.2630 C.ar    0  <0>0        0.0012
     27  C11       12.3630   33.0690   62.4510 C.ar    0  <0>0        0.0828
     28  C16       13.4750   33.8920   62.5730 C.ar    0  <0>0        0.0191
     29  C15       14.5680   33.4690   63.3030 C.ar    0  <0>0        0.0015
     30  C14       14.5570   32.2270   63.9120 C.ar    0  <0>0        0.0001
     31  C13       13.4510   31.4050   63.7920 C.ar    0  <0>0        0.0015
     32  C12       12.3520   31.8260   63.0680 C.ar    0  <0>0        0.0191
@<TRIPOS>BOND
     1    16    15   ar
     2    16    17   ar
     3    15    14   ar
     4    17    12   ar
     5    14    13   ar
     6    24    23    1
     7    12    13   ar
     8    12    10    1
     9    11    10    1
    10    22    23   ar
    11    22    21   ar
    12    13    18    1
    13    23    25   ar
    14    21    20   ar
    15    10     7    1
    16     9     7    1
    17     8     7    1
    18     7     6    1
    19    18    19    1
    20    25    26   ar
    21    20    26   ar
    22    20     1    1
    23     6     2    1
    24     1     2   ar
    25     1     5   ar
    26     2     3   ar
    27     5     4   ar
    28     3     4   ar
    29     4    27    1
    30    27    28   ar
    31    27    32   ar
    32    28    29   ar
    33    32    31   ar
    34    29    30   ar
    35    31    30   ar
