@<TRIPOS>MOLECULE
ZINC21266640_replica-1.pdb
 28 32 0 0 0
SMALL
GASTEIGER

@<TRIPOS>ATOM
      1  C11        6.9520   33.8610   59.1720 C.ar    0  <0>0        0.1934
      2  N2         6.8480   34.0320   60.4710 N.ar    0  <0>0       -0.1221
      3  N3         5.6150   34.1900   60.7980 N.ar    0  <0>0       -0.1282
      4  C12        4.8550   34.1200   59.7310 C.ar    0  <0>0        0.1689
      5  N4         5.6880   33.9070   58.6560 N.ar    0  <0>0       -0.2923
      6  S1         8.4420   33.6100   58.2670 S.3     0  <0>0       -0.0707
      7  C10        9.1100   35.2920   58.2870 C.3     0  <0>0        0.0945
      8  C8         9.8230   35.5340   59.5920 C.2     0  <0>0        0.0262
      9  C7        10.6170   34.5600   60.1270 C.2     0  <0>0       -0.0150
     10  C5        11.2620   34.8260   61.3500 C.3     0  <0>0        0.0960
     11  C4        11.0710   36.0870   61.9680 C.2     0  <0>0        0.1178
     12  C6        12.0900   33.8710   61.9620 C.2     0  <0>0       -0.0150
     13  C3        11.7200   36.3550   63.1870 C.2     0  <0>0        0.0282
     14  N1        10.2850   36.9990   61.3900 N.2     0  <0>0       -0.3945
     15  C2        12.5160   35.4080   63.7520 C.2     0  <0>0        0.0020
     16  C1        12.7010   34.1680   63.1420 C.2     0  <0>0       -0.0038
     17  C9         9.6780   36.7540   60.2520 C.2     0  <0>0        0.1848
     18 Cl          8.6690   37.9800   59.5500 Cl      0  <0>0       -0.0483
     19  C13        5.3000   33.7600   57.2510 C.3     0  <0>0        0.0889
     20  C15        5.7750   32.5070   56.5150 C.3     0  <0>0        0.0246
     21  C14        4.3020   32.6520   56.9060 C.3     0  <0>0        0.0246
     22  C16        3.3830   34.2460   59.6900 C.ar    0  <0>0        0.0634
     23  C21        2.7900   35.3450   59.0620 C.ar    0  <0>0        0.1430
     24  C20        1.4120   35.4520   59.0220 C.ar    0  <0>0        0.0297
     25  F1         3.5610   36.2960   58.4900 F       0  <0>0       -0.2041
     26  C19        0.6240   34.4830   59.6120 C.ar    0  <0>0        0.0023
     27  C18        1.2060   33.3950   60.2400 C.ar    0  <0>0        0.0002
     28  C17        2.5780   33.2710   60.2820 C.ar    0  <0>0        0.0053
@<TRIPOS>BOND
     1    20    21    1
     2    20    19    1
     3    21    19    1
     4    19     5    1
     5     6     7    1
     6     6     1    1
     7     7     8    1
     8    25    23    1
     9     5     1   ar
    10     5     4   ar
    11    24    23   ar
    12    24    26   ar
    13    23    22   ar
    14     1     2   ar
    15    18    17    1
    16     8     9    2
    17     8    17    1
    18    26    27   ar
    19    22     4    1
    20    22    28   ar
    21     4     3   ar
    22     9    10    1
    23    27    28   ar
    24    17    14    2
    25     2     3   ar
    26    10    12    1
    27    10    11    1
    28    14    11    2
    29    12    16    2
    30    11    13    1
    31    16    15    1
    32    13    15    2
