@<TRIPOS>MOLECULE
ZINC10228724_replica-1.pdb
 30 32 0 0 0
SMALL
GASTEIGER

@<TRIPOS>ATOM
      1  C11       -2.0690   28.4870   56.7100 C.2     0  <0>0        0.2018
      2  O1        -2.9350   28.2430   57.5220 O.2     0  <0>0       -0.2774
      3  N1        -0.8720   27.8740   56.7970 N.am    0  <0>0       -0.3000
      4  H15       -0.1780   28.0690   56.1470 H       0  <0>0        0.1499
      5  C10       -2.3300   29.4760   55.6030 C.3     0  <0>0        0.0103
      6  N2        -1.0840   29.6670   54.8300 N.4     0  <0>0        0.3952
      7  C9        -0.3570   30.8530   55.3300 C.3     0  <0>0       -0.0994
      8  H23       -0.4890   28.8380   54.9470 H       0  <0>0       -0.0785
      9  C2        -1.4000   29.8340   53.3960 C.3     0  <0>0       -0.0341
     10  C1        -2.8300   30.3610   53.2620 C.3     0  <0>0       -0.0183
     11  C3        -1.2910   28.4960   52.7110 C.ar    0  <0>0       -0.0414
     12  C8        -1.9900   28.2600   51.5430 C.ar    0  <0>0       -0.0040
     13  C7        -1.8910   27.0340   50.9130 C.ar    0  <0>0        0.0292
     14  C6        -1.0910   26.0420   51.4530 C.ar    0  <0>0        0.1401
     15  C5        -0.3900   26.2800   52.6240 C.ar    0  <0>0        0.0292
     16  F1        -0.9910   24.8430   50.8390 F       0  <0>0       -0.2042
     17  C4        -0.4860   27.5090   53.2480 C.ar    0  <0>0       -0.0040
     18  C12       -0.6180   26.9120   57.8720 C.3     0  <0>0        0.1229
     19  C13       -0.2490   25.5770   57.2760 C.ar    0  <0>0        0.0003
     20  C18        0.3200   25.5170   56.0180 C.ar    0  <0>0       -0.0000
     21  C17        0.6580   24.2940   55.4700 C.ar    0  <0>0        0.0294
     22  C16        0.4270   23.1290   56.1820 C.ar    0  <0>0        0.1401
     23  C15       -0.1450   23.1910   57.4430 C.ar    0  <0>0        0.0294
     24  F2         0.7560   21.9320   55.6480 F       0  <0>0       -0.2042
     25  C14       -0.4770   24.4160   57.9900 C.ar    0  <0>0       -0.0000
     26  C19        0.5160   27.4080   58.7320 C.ar    0  <0>0        0.0292
     27  S1         0.6150   27.5150   60.5120 S.2     0  <0>0       -0.0888
     28  C22        2.2620   28.1930   60.6320 C.ar    0  <0>0        0.0352
     29  C21        2.6210   28.2910   59.3290 C.ar    0  <0>0        0.0072
     30  C20        1.7270   27.8890   58.3550 C.ar    0  <0>0        0.0046
@<TRIPOS>BOND
     1    16    14    1
     2    13    14   ar
     3    13    12   ar
     4    14    15   ar
     5    12    11   ar
     6    15    17   ar
     7    11    17   ar
     8    11     9    1
     9    10     9    1
    10     9     6    1
    11     6     8    1
    12     6     7    1
    13     6     5    1
    14    21    20   ar
    15    21    22   ar
    16     5     1    1
    17    24    22    1
    18    20    19   ar
    19     4     3    1
    20    22    23   ar
    21     1     3   am
    22     1     2    2
    23     3    18    1
    24    19    18    1
    25    19    25   ar
    26    23    25   ar
    27    18    26    1
    28    30    26   ar
    29    30    29   ar
    30    26    27   ar
    31    29    28   ar
    32    27    28   ar
