@<TRIPOS>MOLECULE
ZINC50831446_replica-1.pdb
 20 21 0 0 0
SMALL
GASTEIGER

@<TRIPOS>ATOM
      1  C4         3.8890   35.0470   58.3030 C.3     0  <0>0        0.1649
      2  C5         3.9750   35.3990   56.9860 C.2     0  <0>0        0.1124
      3  N2         2.9010   35.9420   56.4570 N.2     0  <0>0       -0.1562
      4  N3         1.8540   36.1080   57.1900 N.pl3   0  <0>0       -0.0825
      5  S1         2.3150   35.4990   58.6820 S.3     0  <0>0        0.0163
      6  C6         5.2310   35.1780   56.1850 C.3     0  <0>0        0.1869
      7  O1         6.3570   35.6580   56.9220 O.3     0  <0>0       -0.3501
      8  C7         7.5730   35.6920   56.1710 C.3     0  <0>0        0.1157
      9  C12        8.7530   35.9120   57.1200 C.3     0  <0>0        0.0272
     10  C11        8.5720   37.2390   57.8590 C.3     0  <0>0        0.0024
     11  C10        8.5130   38.3840   56.8450 C.3     0  <0>0        0.0002
     12  C9         7.3330   38.1640   55.8970 C.3     0  <0>0        0.0025
     13  C8         7.5140   36.8370   55.1570 C.3     0  <0>0        0.0296
     14  C13        8.8120   34.7670   58.1330 C.3     0  <0>0        0.0024
     15  C14        9.9020   35.0570   59.1670 C.3     0  <0>0        0.0001
     16  N1         4.8530   34.4590   59.1180 N.3     0  <0>0       -0.2841
     17  H10        5.2990   33.6470   58.8320 H       0  <0>0        0.1244
     18  C3         5.1930   35.0680   60.4060 C.3     0  <0>0        0.0695
     19  C2         5.7250   36.4830   60.1770 C.3     0  <0>0        0.0171
     20  C1         7.0370   36.6650   60.9420 C.3     0  <0>0        0.0015
@<TRIPOS>BOND
     1    13    12    1
     2    13     8    1
     3    12    11    1
     4     8     7    1
     5     8     9    1
     6     6     7    1
     7     6     2    1
     8     3     2    2
     9     3     4    1
    10    11    10    1
    11     2     1    1
    12     9    10    1
    13     9    14    1
    14     4     5    1
    15    14    15    1
    16     1     5    1
    17     1    16    1
    18    17    16    1
    19    16    18    1
    20    19    18    1
    21    19    20    1
