@<TRIPOS>MOLECULE
ZINC31249422_replica-1.pdb
 27 28 0 0 0
SMALL
GASTEIGER

@<TRIPOS>ATOM
      1  N1         6.8160   36.7100   58.2520 N.am    0  <0>0       -0.2986
      2  C12        6.0860   35.9220   57.4390 C.2     0  <0>0        0.2491
      3  O1         6.5940   35.4310   56.4490 O.2     0  <0>0       -0.2700
      4  H16        6.4110   37.1000   59.0410 H       0  <0>0        0.1500
      5  C13        4.6710   35.6530   57.7500 C.ar    0  <0>0        0.0905
      6  C18        4.3250   34.9890   58.9360 C.ar    0  <0>0        0.1797
      7  C17        2.9900   34.7450   59.2240 C.ar    0  <0>0        0.2062
      8  C16        2.0020   35.1490   58.3320 C.ar    0  <0>0        0.1754
      9  C15        2.3480   35.8030   57.1530 C.ar    0  <0>0        0.0404
     10  C14        3.6680   36.0540   56.8610 C.ar    0  <0>0        0.0109
     11  O2         5.2930   34.5920   59.8020 O.3     0  <0>0       -0.4681
     12  C19        5.9420   33.3490   59.5220 C.3     0  <0>0        0.2526
     13  O3         2.6470   34.1080   60.3760 O.3     0  <0>0       -0.4654
     14  C20        2.5190   32.6850   60.3170 C.3     0  <0>0        0.2528
     15  O4         0.6960   34.9060   58.6130 O.3     0  <0>0       -0.4683
     16  C21        0.0600   33.8550   57.8810 C.3     0  <0>0        0.2526
     17  C2         8.2230   36.9780   57.9420 C.3     0  <0>0        0.0944
     18  C1         8.4280   38.4820   57.7550 C.3     0  <0>0        0.0262
     19  C3         9.0880   36.4910   59.0760 C.ar    0  <0>0       -0.0045
     20  C8         9.6930   35.2510   59.0010 C.ar    0  <0>0       -0.0030
     21  C7        10.4900   34.8060   60.0400 C.ar    0  <0>0       -0.0045
     22  C6        10.6740   35.5990   61.1580 C.ar    0  <0>0       -0.0225
     23  C5        10.0650   36.8370   61.2350 C.ar    0  <0>0       -0.0045
     24  C4         9.2720   37.2830   60.1950 C.ar    0  <0>0       -0.0030
     25  C9        11.5410   35.1130   62.2910 C.3     0  <0>0        0.0224
     26  C10       12.7730   34.4070   61.7230 C.3     0  <0>0        0.0047
     27  C11       11.9820   36.3040   63.1430 C.3     0  <0>0        0.0047
@<TRIPOS>BOND
     1     3     2    2
     2    10     9   ar
     3    10     5   ar
     4     9     8   ar
     5     2     5    1
     6     2     1   am
     7     5     6   ar
     8    18    17    1
     9    16    15    1
    10    17     1    1
    11    17    19    1
    12     1     4    1
    13     8    15    1
    14     8     7   ar
    15     6     7   ar
    16     6    11    1
    17    20    19   ar
    18    20    21   ar
    19    19    24   ar
    20     7    13    1
    21    12    11    1
    22    21    22   ar
    23    24    23   ar
    24    14    13    1
    25    22    23   ar
    26    22    25    1
    27    26    25    1
    28    25    27    1
