@<TRIPOS>MOLECULE
ZINC07056000_replica-1.pdb
 25 28 0 0 0
SMALL
GASTEIGER

@<TRIPOS>ATOM
      1  C1        -0.4050   25.2160   52.2010 C.ar    0  <0>0        0.0002
      2  C2        -1.1970   25.6610   51.1540 C.ar    0  <0>0        0.0031
      3  C3        -1.6830   26.9510   51.1410 C.ar    0  <0>0        0.0375
      4  C4        -1.3810   27.8200   52.1830 C.ar    0  <0>0        0.1453
      5  C5        -0.5800   27.3670   53.2400 C.ar    0  <0>0        0.0375
      6  C6        -0.0950   26.0630   53.2430 C.ar    0  <0>0        0.0031
      7  C7        -0.4510   28.5110   54.1630 C.ar    0  <0>0        0.0388
      8  C8         0.2030   28.7050   55.3750 C.ar    0  <0>0        0.0190
      9  C9         0.1250   29.9360   56.0070 C.ar    0  <0>0        0.0650
     10  C10       -0.6090   30.9680   55.4310 C.ar    0  <0>0        0.0190
     11  C11       -1.2540   30.7810   54.2270 C.ar    0  <0>0        0.0388
     12  C12       -1.1850   29.5530   53.5810 C.ar    0  <0>0        0.1454
     13  O1        -1.7170   29.1070   52.4190 O.2     0  <0>0       -0.4535
     14  N1         0.7800   30.1390   57.2270 N.pl3   0  <0>0       -0.2150
     15  H8         1.5680   30.7040   57.2660 H       0  <0>0        0.1737
     16  S1         0.2110   29.4130   58.6020 S.O2    0  <0>0        0.0736
     17  O2         1.1210   28.3680   58.9160 O.2     0  <0>0       -0.1499
     18  O3        -1.1750   29.1790   58.3940 O.2     0  <0>0       -0.1499
     19  C13        0.3330   30.5940   59.9040 C.ar    0  <0>0        0.1253
     20  C18        0.8680   31.8450   59.6550 C.ar    0  <0>0        0.0225
     21  C17        0.9640   32.7710   60.6750 C.ar    0  <0>0        0.0310
     22  C16        0.5240   32.4480   61.9480 C.ar    0  <0>0        0.1402
     23  C15       -0.0110   31.1960   62.1960 C.ar    0  <0>0        0.0310
     24  F1         0.6180   33.3530   62.9460 F       0  <0>0       -0.2042
     25  C14       -0.1110   30.2720   61.1730 C.ar    0  <0>0        0.0225
@<TRIPOS>BOND
     1     3     2   ar
     2     3     4   ar
     3     2     1   ar
     4     4    13   ar
     5     4     5   ar
     6     1     6   ar
     7    13    12   ar
     8     5     6   ar
     9     5     7   ar
    10    12     7   ar
    11    12    11   ar
    12     7     8   ar
    13    11    10   ar
    14     8     9   ar
    15    10     9   ar
    16     9    14    1
    17    14    15    1
    18    14    16    1
    19    18    16    2
    20    16    17    2
    21    16    19    1
    22    20    19   ar
    23    20    21   ar
    24    19    25   ar
    25    21    22   ar
    26    25    23   ar
    27    22    23   ar
    28    22    24    1
