@<TRIPOS>MOLECULE
ZINC20881566_replica-1.pdb
 37 41 0 0 0
SMALL
GASTEIGER

@<TRIPOS>ATOM
      1  C11        8.2240   33.3500   59.9610 C.3     0  <0>0        0.0356
      2  C12        8.4830   33.5550   58.4700 C.3     0  <0>0        0.0458
      3  C13        7.2170   33.2730   57.6790 C.2     0  <0>0        0.0262
      4  C14        6.3390   32.3490   58.1070 C.2     0  <0>0        0.0436
      5  C15        5.0470   31.9710   57.4220 C.3     0  <0>0        0.1186
      6  N1         4.9030   32.4940   56.0800 N.pl3   0  <0>0       -0.3262
      7  C16        4.8160   33.8660   55.8490 C.ar    0  <0>0        0.0586
      8  C17        3.6470   34.4500   55.3890 C.ar    0  <0>0        0.0156
      9  C18        3.5720   35.8270   55.2820 C.ar    0  <0>0        0.0013
     10  C19        4.6530   36.6170   55.6280 C.ar    0  <0>0        0.0014
     11  C20        5.8310   36.0350   56.0670 C.ar    0  <0>0        0.0158
     12  C21        5.9130   34.6570   56.1580 C.ar    0  <0>0        0.0614
     13  N2         7.0780   34.0060   56.5450 N.pl3   0  <0>0       -0.3150
     14  C29        6.5810   31.6380   59.3060 C.2     0  <0>0        0.1722
     15  O2         5.7830   30.7900   59.6560 O.2     0  <0>0       -0.2916
     16  C30        7.7850   31.8950   60.1620 C.3     0  <0>0        0.0736
     17  H18        4.8590   31.8060   55.2230 H       0  <0>0        0.1474
     18  H23        7.9270   34.1180   55.8560 H       0  <0>0        0.1520
     19  C8         9.4860   33.6160   60.7410 C.ar    0  <0>0       -0.0215
     20  C7        10.1140   34.8430   60.6390 C.ar    0  <0>0       -0.0011
     21  C6        11.2710   35.0890   61.3530 C.ar    0  <0>0        0.0366
     22  C5        11.8030   34.1040   62.1710 C.ar    0  <0>0        0.1385
     23  C10       11.1710   32.8740   62.2720 C.ar    0  <0>0        0.0366
     24  C9        10.0110   32.6330   61.5600 C.ar    0  <0>0       -0.0011
     25  O1        12.9410   34.3430   62.8740 O.3     0  <0>0       -0.4755
     26  C4        14.1720   33.9380   62.2720 C.3     0  <0>0        0.2053
     27  C2        14.9910   33.1300   63.2810 C.3     0  <0>0        0.0438
     28  C1        15.3630   34.0230   64.4670 C.3     0  <0>0        0.0038
     29  C3        14.1610   31.9440   63.7780 C.3     0  <0>0        0.0038
     30  C22        3.8980   32.4750   58.2570 C.ar    0  <0>0       -0.0002
     31  C27        4.0490   33.6190   59.0190 C.ar    0  <0>0       -0.0019
     32  C26        2.9990   34.0850   59.7840 C.ar    0  <0>0        0.0059
     33  C25        1.7880   33.4020   59.7880 C.ar    0  <0>0        0.0252
     34  C24        1.6390   32.2530   59.0210 C.ar    0  <0>0        0.0059
     35  C23        2.6920   31.7970   58.2530 C.ar    0  <0>0       -0.0019
     36  S1         0.4450   33.9920   60.7640 S.3     0  <0>0       -0.1127
     37  C28        0.5100   32.9740   62.2630 C.3     0  <0>0        0.0742
@<TRIPOS>BOND
     1    17     6    1
     2     9     8   ar
     3     9    10   ar
     4     8     7   ar
     5    10    11   ar
     6     7     6    1
     7     7    12   ar
     8    18    13    1
     9    11    12   ar
    10     6     5    1
    11    12    13    1
    12    13     3    1
    13     5     4    1
    14     5    30    1
    15     3     4    2
    16     3     2    1
    17     4    14    1
    18    35    30   ar
    19    35    34   ar
    20    30    31   ar
    21     2     1    1
    22    31    32   ar
    23    34    33   ar
    24    14    15    2
    25    14    16    1
    26    32    33   ar
    27    33    36    1
    28     1    16    1
    29     1    19    1
    30    20    19   ar
    31    20    21   ar
    32    19    24   ar
    33    36    37    1
    34    21    22   ar
    35    24    23   ar
    36    22    23   ar
    37    22    25    1
    38    26    25    1
    39    26    27    1
    40    27    29    1
    41    27    28    1
