@<TRIPOS>MOLECULE
ZINC33308449_replica-1.pdb
 25 27 0 0 0
SMALL
GASTEIGER

@<TRIPOS>ATOM
      1  C6        11.4700   34.1460   61.9980 C.ar    0  <0>0        0.0568
      2  C7        10.4860   33.8680   61.0880 C.ar    0  <0>0        0.0291
      3  C8         9.7450   34.9120   60.5730 C.ar    0  <0>0        0.1277
      4  C9        10.0160   36.1770   60.9790 C.ar    0  <0>0        0.0265
      5  S2        11.3530   35.9220   62.1350 S.2     0  <0>0       -0.0876
      6  C10        9.3580   37.4670   60.5610 C.3     0  <0>0        0.0396
      7  S3         8.4670   34.6050   59.4000 S.O2    0  <0>0        0.0738
      8  O1         7.4070   35.4970   59.7110 O.2     0  <0>0       -0.1499
      9  O2         8.2880   33.1960   59.3520 O.2     0  <0>0       -0.1499
     10  N2         9.0470   35.0590   57.9160 N.pl3   0  <0>0       -0.2145
     11  H11        9.9740   34.6110   57.5270 H       0  <0>0        0.1737
     12  C11        8.3600   36.0110   57.1590 C.ar    0  <0>0        0.0709
     13  C16        7.3850   35.6090   56.2540 C.ar    0  <0>0        0.0491
     14  C15        6.7070   36.5540   55.5070 C.ar    0  <0>0        0.0080
     15 Br          6.9860   33.7720   56.0450 Br      0  <0>0       -0.0477
     16  C14        6.9960   37.8970   55.6600 C.ar    0  <0>0        0.0006
     17  C13        7.9670   38.2990   56.5600 C.ar    0  <0>0        0.0013
     18  C12        8.6460   37.3620   57.3130 C.ar    0  <0>0        0.0164
     19  C4        12.3910   33.2170   62.6860 C.2     0  <0>0        0.1264
     20  N1        12.0920   31.9340   62.8250 N.2     0  <0>0       -0.4030
     21  C3        12.9060   31.1030   63.4310 C.2     0  <0>0        0.1343
     22  S1        14.2260   32.1340   63.8860 S.3     0  <0>0       -0.0791
     23  C5        13.5800   33.6570   63.2070 C.3     0  <0>0        0.1235
     24  C2        12.7350   29.6260   63.6740 C.3     0  <0>0        0.0656
     25  C1        12.5110   29.3770   65.1680 C.3     0  <0>0        0.0084
@<TRIPOS>BOND
     1    14    16   ar
     2    14    13   ar
     3    16    17   ar
     4    15    13    1
     5    13    12   ar
     6    17    18   ar
     7    12    18   ar
     8    12    10    1
     9    11    10    1
    10    10     7    1
    11     9     7    2
    12     7     8    2
    13     7     3    1
    14     6     4    1
    15     3     4   ar
    16     3     2   ar
    17     4     5   ar
    18     2     1   ar
    19     1     5   ar
    20     1    19    1
    21    19    20    2
    22    19    23    1
    23    20    21    2
    24    23    22    1
    25    21    24    1
    26    21    22    1
    27    24    25    1
