@<TRIPOS>MOLECULE
ZINC20141959_replica-1.pdb
 30 32 0 0 0
SMALL
GASTEIGER

@<TRIPOS>ATOM
      1  C12        6.7430   35.8100   58.0610 C.ar    0  <0>0        0.0613
      2  C13        5.4390   35.5570   58.4580 C.ar    0  <0>0        0.0186
      3  C14        4.3930   35.7320   57.5510 C.ar    0  <0>0        0.0358
      4  C15        4.6660   36.1600   56.2510 C.ar    0  <0>0        0.0040
      5  C16        5.9660   36.4090   55.8640 C.ar    0  <0>0        0.0127
      6  C17        7.0030   36.2410   56.7650 C.ar    0  <0>0        0.0711
      7 Cl          8.6370   36.5630   56.2730 Cl      0  <0>0       -0.0810
      8  N1         7.7960   35.6370   58.9670 N.am    0  <0>0       -0.2797
      9  C11        8.3810   34.4300   59.0960 C.2     0  <0>0        0.2495
     10  O2         8.0680   33.5190   58.3550 O.2     0  <0>0       -0.2698
     11  H14        8.1040   36.3860   59.5000 H       0  <0>0        0.1552
     12  C8         9.4040   34.2140   60.1390 C.ar    0  <0>0        0.0539
     13  C7         9.4960   32.9780   60.7840 C.ar    0  <0>0        0.0076
     14  C6        10.4520   32.7810   61.7560 C.ar    0  <0>0        0.0370
     15  C5        11.3240   33.8090   62.0940 C.ar    0  <0>0        0.1384
     16  C10       11.2310   35.0420   61.4580 C.ar    0  <0>0        0.0370
     17  C9        10.2830   35.2450   60.4810 C.ar    0  <0>0        0.0076
     18  O1        12.2640   33.6110   63.0510 O.3     0  <0>0       -0.4792
     19  C3        13.4160   32.8500   62.6840 C.3     0  <0>0        0.1660
     20  C4        13.5530   31.6470   63.6190 C.3     0  <0>0        0.0472
     21  C2        14.6650   33.7270   62.7940 C.3     0  <0>0        0.0435
     22  C1        15.1890   33.6900   64.2290 C.3     0  <0>0        0.0038
     23  C18        3.0000   35.4650   57.9680 C.ar    0  <0>0        0.1450
     24  O3         2.6160   34.8960   59.1270 O.2     0  <0>0       -0.4553
     25  C21        1.2760   34.8150   59.1620 C.ar    0  <0>0        0.1524
     26  C20        0.7830   35.3250   58.0160 C.ar    0  <0>0        0.0386
     27  C19        1.8830   35.7440   57.2440 C.ar    0  <0>0        0.0403
     28  C22        0.4600   34.2420   60.2920 C.3     0  <0>0        0.2019
     29  O4         1.3190   33.5480   61.1970 O.3     0  <0>0       -0.3748
     30  H22        2.1440   33.2390   60.7990 H       0  <0>0        0.2110
@<TRIPOS>BOND
     1     5     4   ar
     2     5     6   ar
     3     4     3   ar
     4     7     6    1
     5     6     1   ar
     6    27    23   ar
     7    27    26   ar
     8     3    23    1
     9     3     2   ar
    10    23    24   ar
    11    26    25   ar
    12     1     2   ar
    13     1     8    1
    14    10     9    2
    15     8     9   am
    16     8    11    1
    17     9    12    1
    18    24    25   ar
    19    25    28    1
    20    12    17   ar
    21    12    13   ar
    22    28    29    1
    23    17    16   ar
    24    13    14   ar
    25    30    29    1
    26    16    15   ar
    27    14    15   ar
    28    15    18    1
    29    19    21    1
    30    19    18    1
    31    19    20    1
    32    21    22    1
