@<TRIPOS>MOLECULE
ZINC37244021_replica-1.pdb
 22 24 0 0 0
SMALL
GASTEIGER

@<TRIPOS>ATOM
      1  C8         7.6180   36.7770   58.2680 C.3     0  <0>0        0.0918
      2  N1         6.8400   35.5860   57.9170 N.pl3   0  <0>0       -0.3288
      3  H8         7.2820   34.7280   57.8220 H       0  <0>0        0.1471
      4  C5         5.4590   35.6880   57.7170 C.ar    0  <0>0        0.0726
      5  C4         4.6020   35.7650   58.8060 C.ar    0  <0>0        0.0163
      6  C3         3.2390   35.8650   58.6060 C.ar    0  <0>0       -0.0029
      7  C2         2.7270   35.8890   57.3210 C.ar    0  <0>0       -0.0195
      8  C1         1.2390   36.0000   57.1070 C.3     0  <0>0        0.0311
      9  C7         3.5760   35.8070   56.2340 C.ar    0  <0>0        0.0267
     10  C6         4.9420   35.7120   56.4260 C.ar    0  <0>0        0.1528
     11  F1         5.7720   35.6380   55.3620 F       0  <0>0       -0.2029
     12  C9         8.6910   36.4020   59.2590 C.ar    0  <0>0       -0.0044
     13  C14        9.4470   35.2610   59.0600 C.ar    0  <0>0        0.0004
     14  C13       10.4330   34.9190   59.9640 C.ar    0  <0>0        0.0366
     15  C12       10.6580   35.7140   61.0780 C.ar    0  <0>0        0.1387
     16  C11        9.8940   36.8540   61.2790 C.ar    0  <0>0        0.0366
     17  C10        8.9120   37.1960   60.3690 C.ar    0  <0>0        0.0004
     18  O1        11.6240   35.3760   61.9720 O.3     0  <0>0       -0.4714
     19  C15       11.8160   33.9820   62.2230 C.3     0  <0>0        0.2525
     20  C16        8.2670   37.3520   57.0080 C.3     0  <0>0        0.0221
     21  C18        7.4780   38.4020   56.2240 C.3     0  <0>0        0.0020
     22  C17        8.7010   38.8190   57.0440 C.3     0  <0>0        0.0020
@<TRIPOS>BOND
     1    11    10    1
     2    21    20    1
     3    21    22    1
     4     9    10   ar
     5     9     7   ar
     6    10     4   ar
     7    20    22    1
     8    20     1    1
     9     8     7    1
    10     7     6   ar
    11     4     2    1
    12     4     5   ar
    13     3     2    1
    14     2     1    1
    15     1    12    1
    16     6     5   ar
    17    13    12   ar
    18    13    14   ar
    19    12    17   ar
    20    14    15   ar
    21    17    16   ar
    22    15    16   ar
    23    15    18    1
    24    18    19    1
