@<TRIPOS>MOLECULE
ZINC21987975_replica-1.pdb
 25 26 0 0 0
SMALL
GASTEIGER

@<TRIPOS>ATOM
      1  C1        -1.8270   27.6270   50.8850 C.3     0  <0>0        0.0340
      2  C2        -1.2500   27.5760   52.2760 C.ar    0  <0>0        0.0105
      3  C3        -1.4420   28.6310   53.1450 C.ar    0  <0>0        0.0107
      4  C4        -0.9120   28.5880   54.4290 C.ar    0  <0>0        0.1297
      5  C5        -0.1900   27.4800   54.8390 C.ar    0  <0>0        0.0105
      6  C6         0.0040   26.4230   53.9670 C.ar    0  <0>0        0.0104
      7  C7        -0.5230   26.4680   52.6850 C.ar    0  <0>0        0.1252
      8  C8         0.7940   25.2190   54.4110 C.3     0  <0>0        0.0340
      9  C9         0.3970   27.3940   56.2250 C.3     0  <0>0        0.0328
     10  C10        0.4530   28.7900   56.8490 C.3     0  <0>0        0.0448
     11  C11       -0.9110   29.4620   56.6520 C.3     0  <0>0        0.1335
     12  O2        -1.1220   29.6500   55.2520 O.3     0  <0>0       -0.4832
     13  C12       -2.0130   28.5670   57.2240 C.3     0  <0>0        0.0436
     14  C20       -2.2320   29.8350   52.6980 C.3     0  <0>0        0.0340
     15  C13       -0.9270   30.8170   57.3620 C.3     0  <0>0        0.0400
     16  C14       -0.2400   31.8620   56.4820 C.3     0  <0>0        0.0041
     17  C15        0.8460   32.5750   57.2900 C.3     0  <0>0        0.0112
     18  C16        0.1950   33.5720   58.2510 C.3     0  <0>0        0.0991
     19  C17        0.5660   33.2090   59.6900 C.3     0  <0>0        0.0116
     20  C18        0.6850   34.9620   57.9410 C.2     0  <0>0        0.3165
     21  O3         0.4510   35.4590   56.8650 O.2     0  <0>0       -0.2501
     22  O4         1.3830   35.6490   58.8600 O.3     0  <0>0       -0.4444
     23  C19        2.7350   36.0400   58.5040 C.3     0  <0>0        0.2556
     24  O1        -0.3300   25.4260   51.8330 O.3     0  <0>0       -0.5062
     25  H5        -0.6840   25.4930   50.7940 H       0  <0>0        0.2922
@<TRIPOS>BOND
     1    25    24    1
     2     1     2    1
     3    24     7    1
     4     2     7   ar
     5     2     3   ar
     6     7     6   ar
     7    14     3    1
     8     3     4   ar
     9     6     8    1
    10     6     5   ar
    11     4     5   ar
    12     4    12    1
    13     5     9    1
    14    12    11    1
    15     9    10    1
    16    16    17    1
    17    16    15    1
    18    11    10    1
    19    11    13    1
    20    11    15    1
    21    21    20    2
    22    17    18    1
    23    20    18    1
    24    20    22    1
    25    18    19    1
    26    23    22    1
