@<TRIPOS>MOLECULE
ZINC37883640_replica-1.pdb
 23 24 0 0 0
SMALL
GASTEIGER

@<TRIPOS>ATOM
      1  C9        -0.1670   30.9590   54.8430 C.3     0  <0>0        0.1735
      2  C8        -1.3350   29.9900   54.6550 C.3     0  <0>0        0.2361
      3  O1        -1.5350   29.7500   53.2600 O.3     0  <0>0       -0.4728
      4  C5        -1.2930   28.4900   52.8100 C.ar    0  <0>0        0.1387
      5  C4        -1.7950   28.0830   51.5830 C.ar    0  <0>0        0.0366
      6  C3        -1.5480   26.8030   51.1270 C.ar    0  <0>0       -0.0011
      7  C2        -0.7990   25.9280   51.8930 C.ar    0  <0>0       -0.0217
      8  C1        -0.5310   24.5310   51.3930 C.3     0  <0>0        0.0310
      9  C7        -0.3030   26.3300   53.1190 C.ar    0  <0>0       -0.0011
     10  C6        -0.5430   27.6110   53.5770 C.ar    0  <0>0        0.0366
     11  C10       -0.3920   31.7920   56.1060 C.3     0  <0>0        0.1206
     12  N1         0.2430   33.1010   55.9490 N.pl3   0  <0>0       -0.3299
     13  H13        0.2570   33.5330   55.0810 H       0  <0>0        0.1469
     14  C11        0.8300   33.7310   57.0510 C.ar    0  <0>0        0.0562
     15  C16        2.1580   34.1380   56.9960 C.ar    0  <0>0        0.0812
     16  C15        2.7320   34.7660   58.0860 C.ar    0  <0>0        0.0694
     17 Cl          3.0900   33.8680   55.5560 Cl      0  <0>0       -0.0801
     18  C14        1.9900   34.9760   59.2350 C.ar    0  <0>0        0.0123
     19 Cl          4.3870   35.2840   58.0150 Cl      0  <0>0       -0.0813
     20  C13        0.6710   34.5650   59.2940 C.ar    0  <0>0        0.0022
     21  C12        0.0890   33.9430   58.2070 C.ar    0  <0>0        0.0152
     22  O2         1.0500   30.2210   54.9690 O.3     0  <0>0       -0.3791
     23  H17        0.9680   29.4150   55.4970 H       0  <0>0        0.2106
@<TRIPOS>BOND
     1     6     5   ar
     2     6     7   ar
     3     8     7    1
     4     5     4   ar
     5     7     9   ar
     6     4     3    1
     7     4    10   ar
     8     9    10   ar
     9     3     2    1
    10     2     1    1
    11     1    22    1
    12     1    11    1
    13    22    23    1
    14    13    12    1
    15    17    15    1
    16    12    11    1
    17    12    14    1
    18    15    14   ar
    19    15    16   ar
    20    14    21   ar
    21    19    16    1
    22    16    18   ar
    23    21    20   ar
    24    18    20   ar
