@<TRIPOS>MOLECULE
ZINC04469030_replica-1.pdb
 27 30 0 0 0
SMALL
GASTEIGER

@<TRIPOS>ATOM
      1  N1        -1.1090   28.9480   56.8920 N.am    0  <0>0       -0.2084
      2  C11       -1.9100   28.9420   55.8070 C.2     0  <0>0        0.2526
      3  O1        -3.0830   28.6390   55.7620 O.2     0  <0>0       -0.2723
      4  C12       -1.0360   29.3920   54.6580 C.3     0  <0>0        0.1463
      5  C13       -1.5760   30.6860   54.0600 C.3     0  <0>0        0.0316
      6  C14       -2.8550   30.3620   53.2790 C.3     0  <0>0        0.0071
      7  C15       -2.4760   29.5490   52.0430 C.3     0  <0>0        0.0262
      8  C16       -1.6120   28.3750   52.4210 C.ar    0  <0>0       -0.0242
      9  C17       -0.9410   28.3070   53.6230 C.ar    0  <0>0       -0.0019
     10  C18       -0.1450   27.2050   53.9040 C.ar    0  <0>0       -0.0026
     11  C19       -0.0260   26.1750   52.9930 C.ar    0  <0>0       -0.0003
     12  C20       -0.7040   26.2410   51.7900 C.ar    0  <0>0       -0.0003
     13  C21       -1.4930   27.3370   51.5070 C.ar    0  <0>0       -0.0045
     14  N2         0.2750   29.6230   55.2770 N.am    0  <0>0       -0.2806
     15  C22        0.1350   29.3360   56.5860 C.2     0  <0>0        0.3105
     16  O2         1.0360   29.4210   57.3970 O.2     0  <0>0       -0.2521
     17  H24        1.0840   29.9220   54.8330 H       0  <0>0        0.1516
     18  C10       -1.5450   28.5710   58.2390 C.3     0  <0>0        0.1290
     19  C7        -1.5920   27.0690   58.3510 C.ar    0  <0>0       -0.0019
     20  C6        -2.7920   26.4320   58.6030 C.ar    0  <0>0       -0.0029
     21  C5        -2.8360   25.0540   58.7050 C.ar    0  <0>0       -0.0045
     22  C4        -1.6790   24.3130   58.5550 C.ar    0  <0>0       -0.0225
     23  C9        -0.4780   24.9500   58.3020 C.ar    0  <0>0       -0.0045
     24  C8        -0.4360   26.3270   58.1940 C.ar    0  <0>0       -0.0029
     25  C2        -1.7260   22.8120   58.6670 C.3     0  <0>0        0.0224
     26  C1        -3.0890   22.3070   58.1880 C.3     0  <0>0        0.0047
     27  C3        -0.6230   22.2000   57.8010 C.3     0  <0>0        0.0047
@<TRIPOS>BOND
     1    13    12   ar
     2    13     8   ar
     3    12    11   ar
     4     7     8    1
     5     7     6    1
     6     8     9   ar
     7    11    10   ar
     8     6     5    1
     9     9    10   ar
    10     9     4    1
    11     5     4    1
    12     4    14    1
    13     4     2    1
    14    17    14    1
    15    14    15   am
    16     3     2    2
    17     2     1   am
    18    15     1   am
    19    15    16    2
    20     1    18    1
    21    27    25    1
    22    26    25    1
    23    24    23   ar
    24    24    19   ar
    25    18    19    1
    26    23    22   ar
    27    19    20   ar
    28    22    25    1
    29    22    21   ar
    30    20    21   ar
