@<TRIPOS>MOLECULE
ZINC47205738_replica-1.pdb
 22 24 0 0 0
SMALL
GASTEIGER

@<TRIPOS>ATOM
      1  C7         9.4040   35.5320   60.5670 C.3     0  <0>0        0.1353
      2  C8         9.2800   34.1420   60.4280 C.2     0  <0>0        0.2028
      3  N1        10.1650   33.3680   61.0340 N.2     0  <0>0       -0.3921
      4  C9        11.1470   33.8720   61.7550 C.2     0  <0>0        0.1575
      5  S1        10.8590   35.6290   61.6030 S.3     0  <0>0       -0.0713
      6  C3         8.5710   36.6140   60.0100 C.ar    0  <0>0       -0.0030
      7  C2         7.3040   36.8670   60.5400 C.ar    0  <0>0       -0.0029
      8  C1         6.5280   37.8800   60.0150 C.ar    0  <0>0        0.0020
      9  C6         7.0020   38.6460   58.9640 C.ar    0  <0>0        0.0296
     10  C5         8.2580   38.4010   58.4320 C.ar    0  <0>0        0.1399
     11  C4         9.0460   37.3890   58.9490 C.ar    0  <0>0        0.0266
     12  F1         8.7150   39.1520   57.4060 F       0  <0>0       -0.2042
     13  C16        8.1950   33.5610   59.6310 C.2     0  <0>0        0.4139
     14  O1         7.1220   33.2980   60.1590 O.co2   0  <0>0       -0.2380
     15  O2         8.3620   33.3390   58.4380 O.co2   0  <0>0       -0.2380
     16  C10       12.2160   33.1650   62.4930 C.ar    0  <0>0        0.0378
     17  C15       11.9550   31.9350   63.0970 C.ar    0  <0>0        0.0327
     18  C14       12.9590   31.2780   63.7820 C.ar    0  <0>0        0.1402
     19  C13       14.2200   31.8440   63.8770 C.ar    0  <0>0        0.0296
     20  F2        12.7110   30.0830   64.3620 F       0  <0>0       -0.2042
     21  C12       14.4820   33.0660   63.2850 C.ar    0  <0>0        0.0024
     22  C11       13.4880   33.7290   62.5950 C.ar    0  <0>0        0.0032
@<TRIPOS>BOND
     1    12    10    1
     2    10    11   ar
     3    10     9   ar
     4    15    13   ar
     5    11     6   ar
     6     9     8   ar
     7    13    14   ar
     8    13     2    1
     9     6     7   ar
    10     6     1    1
    11     8     7   ar
    12     2     1    1
    13     2     3    2
    14     1     5    1
    15     3     4    2
    16     5     4    1
    17     4    16    1
    18    16    22   ar
    19    16    17   ar
    20    22    21   ar
    21    17    18   ar
    22    21    19   ar
    23    18    19   ar
    24    18    20    1
