@<TRIPOS>MOLECULE
ZINC35450903_replica-1.pdb
 19 20 0 0 0
SMALL
GASTEIGER

@<TRIPOS>ATOM
      1  N1        10.7400   34.3550   61.8240 N.pl3   0  <0>0       -0.3340
      2  H12       10.3380   35.0630   62.3530 H       0  <0>0        0.1468
      3  C2        10.2920   34.1250   60.4490 C.3     0  <0>0        0.0695
      4  C1         8.9260   33.4370   60.4650 C.3     0  <0>0        0.0212
      5  C3        10.1800   35.4660   59.7180 C.3     0  <0>0        0.0274
      6  C4         9.3230   35.2920   58.4630 C.3     0  <0>0        0.0662
      7  C5         8.7840   36.6320   58.0330 C.ar    0  <0>0        0.1230
      8  O1         8.4250   36.9700   56.7850 O.2     0  <0>0       -0.4547
      9  C8         7.9880   38.2400   56.7730 C.ar    0  <0>0        0.1791
     10  C7         8.0740   38.7300   58.0230 C.ar    0  <0>0        0.0434
     11  C6         8.5870   37.6940   58.8350 C.ar    0  <0>0        0.0362
     12  C9        11.7420   33.5540   62.3750 C.ar    0  <0>0        0.0463
     13  C14       13.0400   34.0420   62.4850 C.ar    0  <0>0        0.0257
     14  C13       14.0290   33.2490   63.0360 C.ar    0  <0>0        0.0597
     15  C12       13.7320   31.9670   63.4660 C.ar    0  <0>0        0.0229
     16 Cl         15.6480   33.8580   63.1800 Cl      0  <0>0       -0.0822
     17  C11       12.4420   31.4790   63.3530 C.ar    0  <0>0        0.0597
     18  C10       11.4470   32.2690   62.8090 C.ar    0  <0>0        0.0257
     19 Cl         12.0730   29.8710   63.8960 Cl      0  <0>0       -0.0822
@<TRIPOS>BOND
     1     9     8   ar
     2     9    10   ar
     3     8     7   ar
     4    10    11   ar
     5     7     6    1
     6     7    11   ar
     7     6     5    1
     8     5     3    1
     9     3     4    1
    10     3     1    1
    11     1     2    1
    12     1    12    1
    13    12    13   ar
    14    12    18   ar
    15    13    14   ar
    16    18    17   ar
    17    14    16    1
    18    14    15   ar
    19    17    15   ar
    20    17    19    1
