@<TRIPOS>MOLECULE
ZINC21950587_replica-1.pdb
 18 19 0 0 0
SMALL
GASTEIGER

@<TRIPOS>ATOM
      1  C1        10.2080   36.4690   61.3550 C.ar    0  <0>0        0.0004
      2  C2         9.5040   37.4060   60.6340 C.ar    0  <0>0        0.0089
      3  C3         9.0730   37.1110   59.3380 C.ar    0  <0>0        0.1071
      4  C4         9.3580   35.8620   58.7750 C.ar    0  <0>0        0.1465
      5  C5        10.0660   34.9250   59.5000 C.ar    0  <0>0        0.0299
      6  C6        10.4990   35.2260   60.7910 C.ar    0  <0>0        0.0023
      7  F1         8.9440   35.5740   57.5210 F       0  <0>0       -0.2040
      8  C7        11.2630   34.2210   61.5680 C.ar    0  <0>0        0.0010
      9  C12       12.5950   34.4620   61.9040 C.ar    0  <0>0        0.0122
     10  C11       13.3010   33.5250   62.6330 C.ar    0  <0>0        0.0682
     11  C10       12.6910   32.3420   63.0190 C.ar    0  <0>0        0.0682
     12 Cl         14.9560   33.8260   63.0590 Cl      0  <0>0       -0.0814
     13  C9        11.3710   32.0960   62.6820 C.ar    0  <0>0        0.0122
     14 Cl         13.5850   31.1640   63.9270 Cl      0  <0>0       -0.0814
     15  C8        10.6560   33.0290   61.9590 C.ar    0  <0>0        0.0009
     16  C13        8.3170   38.1140   58.5650 C.2     0  <0>0        0.3899
     17  O1         7.2070   38.4490   58.9290 O.co2   0  <0>0       -0.2405
     18  O2         8.8560   38.6580   57.4560 O.co2   0  <0>0       -0.2405
@<TRIPOS>BOND
     1    18    16   ar
     2     7     4    1
     3    16    17   ar
     4    16     3    1
     5     4     3   ar
     6     4     5   ar
     7     3     2   ar
     8     5     6   ar
     9     2     1   ar
    10     6     1   ar
    11     6     8    1
    12     8     9   ar
    13     8    15   ar
    14     9    10   ar
    15    15    13   ar
    16    10    11   ar
    17    10    12    1
    18    13    11   ar
    19    11    14    1
