@<TRIPOS>MOLECULE
ZINC44839487_replica-1.pdb
 26 27 0 0 0
SMALL
GASTEIGER

@<TRIPOS>ATOM
      1  C6         0.5930   32.5590   56.6570 C.ar    0  <0>0        0.0517
      2  C7         0.7390   32.0430   57.9380 C.ar    0  <0>0        0.0148
      3  C8         0.0850   30.8790   58.2910 C.ar    0  <0>0        0.0027
      4  C9        -0.7120   30.2250   57.3700 C.ar    0  <0>0        0.0203
      5  C10       -0.8600   30.7360   56.0930 C.ar    0  <0>0        0.1283
      6  C11       -0.2140   31.9040   55.7360 C.ar    0  <0>0        0.0349
      7  S2        -1.8770   29.9010   54.9230 S.O2    0  <0>0        0.0929
      8  O2        -2.2520   28.6660   55.5190 O.2     0  <0>0       -0.1483
      9  O3        -2.8340   30.8470   54.4660 O.2     0  <0>0       -0.1483
     10  N2        -0.9230   29.5270   53.6220 N.pl3   0  <0>0       -0.0965
     11  C12       -0.7630   28.1960   53.2320 C.ar    0  <0>0        0.0918
     12  C17       -0.1210   27.2970   54.0730 C.ar    0  <0>0        0.0294
     13  C16        0.0320   25.9780   53.6860 C.ar    0  <0>0        0.0590
     14  C15       -0.4450   25.5580   52.4560 C.ar    0  <0>0        0.0115
     15 Cl          0.8260   24.8510   54.7400 Cl      0  <0>0       -0.0822
     16  C14       -1.0790   26.4530   51.6140 C.ar    0  <0>0        0.0022
     17  C13       -1.2380   27.7700   51.9980 C.ar    0  <0>0        0.0181
     18  N1         1.2540   33.7380   56.2960 N.am    0  <0>0       -0.2832
     19  C5         2.5830   33.7230   56.0720 C.2     0  <0>0        0.2371
     20  O1         3.2200   32.7090   56.2640 O.2     0  <0>0       -0.2738
     21  H8         0.7560   34.5650   56.2070 H       0  <0>0        0.1549
     22  C4         3.2780   34.9680   55.5830 C.3     0  <0>0        0.1430
     23  S1         4.6500   34.5050   54.4900 S.3     0  <0>0       -0.1258
     24  C3         6.1230   35.1190   55.3510 C.3     0  <0>0        0.0839
     25  C2         5.7160   36.1560   56.3670 C.2     0  <0>0       -0.0145
     26  C1         6.3550   36.2410   57.5070 C.2     0  <0>0       -0.0040
@<TRIPOS>BOND
     1    16    17   ar
     2    16    14   ar
     3    17    11   ar
     4    14    13   ar
     5    11    10    1
     6    11    12   ar
     7    10     7    1
     8    13    12   ar
     9    13    15    1
    10     9     7    2
    11    23    24    1
    12    23    22    1
    13     7     8    2
    14     7     5    1
    15    24    25    1
    16    22    19    1
    17     6     5   ar
    18     6     1   ar
    19    19    20    2
    20    19    18   am
    21     5     4   ar
    22    21    18    1
    23    18     1    1
    24    25    26    2
    25     1     2   ar
    26     4     3   ar
    27     2     3   ar
