@<TRIPOS>MOLECULE
ZINC04973834_replica-1.pdb
 20 22 0 0 0
SMALL
GASTEIGER

@<TRIPOS>ATOM
      1  C7         8.0540   36.0240   57.0510 C.2     0  <0>0        0.3690
      2  N1         8.4590   36.4650   55.8830 N.2     0  <0>0        0.0930
      3  N2         7.5670   36.2260   54.9890 N.2     0  <0>0        0.0478
      4  C8         6.5350   35.6190   55.5300 C.1     0  <0>0        0.1841
      5  S1         5.0740   35.0950   54.6950 S.2     0  <0>0        0.0565
      6  N3         6.8100   35.4620   56.8620 N.am    0  <0>0       -0.0944
      7  C5         8.7930   36.1100   58.3280 C.ar    0  <0>0        0.0966
      8  C4         8.6560   37.2360   59.1440 C.ar    0  <0>0        0.0649
      9  C3         9.3490   37.3090   60.3360 C.ar    0  <0>0        0.0116
     10 Cl          7.6160   38.5390   58.6610 Cl      0  <0>0       -0.0820
     11  C2        10.1780   36.2710   60.7220 C.ar    0  <0>0        0.0009
     12  C1        10.3180   35.1530   59.9180 C.ar    0  <0>0        0.0003
     13  C6         9.6310   35.0670   58.7250 C.ar    0  <0>0        0.0084
     14  C9         5.9950   34.8600   57.8310 C.ar    0  <0>0        0.1533
     15  C14        5.0780   35.6240   58.5400 C.ar    0  <0>0        0.0423
     16  C13        4.2720   35.0250   59.4890 C.ar    0  <0>0        0.0149
     17  C12        4.3860   33.6700   59.7410 C.ar    0  <0>0        0.0579
     18  C11        5.3040   32.9080   59.0400 C.ar    0  <0>0        0.0149
     19 Cl          3.3770   32.9230   60.9410 Cl      0  <0>0       -0.0822
     20  C10        6.1070   33.5000   58.0850 C.ar    0  <0>0        0.0423
@<TRIPOS>BOND
     1     5     4    2
     2     3     4    2
     3     3     2    1
     4     4     6    1
     5     2     1    2
     6     6     1    1
     7     6    14    1
     8     1     7    1
     9    14    20   ar
    10    14    15   ar
    11    20    18   ar
    12     7    13   ar
    13     7     8   ar
    14    15    16   ar
    15    10     8    1
    16    13    12   ar
    17    18    17   ar
    18     8     9   ar
    19    16    17   ar
    20    17    19    1
    21    12    11   ar
    22     9    11   ar
