@<TRIPOS>MOLECULE
ZINC31249809_replica-1.pdb
 27 28 0 0 0
SMALL
GASTEIGER

@<TRIPOS>ATOM
      1  N1        -0.2820   30.8330   56.3990 N.am    0  <0>0       -0.3008
      2  C12        0.5530   31.6240   57.1010 C.2     0  <0>0        0.2427
      3  O1         1.2730   31.1430   57.9510 O.2     0  <0>0       -0.2732
      4  H16       -0.8570   31.2170   55.7190 H       0  <0>0        0.1497
      5  C13        0.5930   33.1060   56.8300 C.3     0  <0>0        0.1759
      6  N2         1.9410   33.6140   57.0940 N.am    0  <0>0       -0.2931
      7  C14        2.1580   34.9430   57.1680 C.2     0  <0>0        0.2470
      8  O2         1.2340   35.7180   57.0170 O.2     0  <0>0       -0.2701
      9  H19        2.6780   32.9960   57.2160 H       0  <0>0        0.1502
     10  C15        3.5180   35.4560   57.4350 C.ar    0  <0>0        0.0639
     11  C20        4.4000   35.6870   56.3770 C.ar    0  <0>0        0.0620
     12  C19        5.6680   36.1720   56.6330 C.ar    0  <0>0        0.0115
     13 Cl          3.9020   35.3730   54.7440 Cl      0  <0>0       -0.0821
     14  C18        6.0670   36.4160   57.9340 C.ar    0  <0>0        0.0009
     15  C17        5.1990   36.1840   58.9870 C.ar    0  <0>0        0.0002
     16  C16        3.9290   35.7060   58.7450 C.ar    0  <0>0        0.0054
     17  C2        -0.3200   29.3920   56.6610 C.3     0  <0>0        0.0942
     18  C1        -1.5450   29.0620   57.5170 C.3     0  <0>0        0.0262
     19  C3        -0.4040   28.6450   55.3550 C.ar    0  <0>0       -0.0045
     20  C8        -1.1600   29.1530   54.3150 C.ar    0  <0>0       -0.0030
     21  C7        -1.2330   28.4700   53.1160 C.ar    0  <0>0       -0.0045
     22  C6        -0.5570   27.2750   52.9590 C.ar    0  <0>0       -0.0225
     23  C5         0.1960   26.7650   54.0000 C.ar    0  <0>0       -0.0045
     24  C4         0.2720   27.4490   55.1990 C.ar    0  <0>0       -0.0030
     25  C9        -0.6400   26.5280   51.6530 C.3     0  <0>0        0.0224
     26  C10       -0.6790   25.0230   51.9250 C.3     0  <0>0        0.0047
     27  C11       -1.9100   26.9440   50.9070 C.3     0  <0>0        0.0047
@<TRIPOS>BOND
     1    27    25    1
     2    25    26    1
     3    25    22    1
     4    22    21   ar
     5    22    23   ar
     6    21    20   ar
     7    23    24   ar
     8    20    19   ar
     9    13    11    1
    10    24    19   ar
    11    19    17    1
    12     4     1    1
    13    11    12   ar
    14    11    10   ar
    15     1    17    1
    16     1     2   am
    17    12    14   ar
    18    17    18    1
    19     5     6    1
    20     5     2    1
    21     8     7    2
    22     6     7   am
    23     6     9    1
    24     2     3    2
    25     7    10    1
    26    10    16   ar
    27    14    15   ar
    28    16    15   ar
