@<TRIPOS>MOLECULE
ZINC33161866_replica-1.pdb
 20 20 0 0 0
SMALL
GASTEIGER

@<TRIPOS>ATOM
      1  C3        11.0830   34.0770   61.5710 C.2     0  <0>0        0.2364
      2  O1        10.0820   33.4460   61.3050 O.2     0  <0>0       -0.2739
      3  N1        11.2270   35.3360   61.1140 N.am    0  <0>0       -0.2783
      4  H5        12.1360   35.9080   61.3540 H       0  <0>0        0.1553
      5  C4        10.2300   35.9110   60.3370 C.ar    0  <0>0        0.0809
      6  S1         9.5780   35.3500   58.8320 S.2     0  <0>0       -0.0658
      7  C7         8.3890   36.6510   58.5520 C.ar    0  <0>0        0.1063
      8  C6         8.5680   37.4550   59.6690 C.ar    0  <0>0        0.0148
      9  C5         9.5140   37.0660   60.5770 C.ar    0  <0>0        0.0221
     10  C8         7.4900   36.8170   57.4690 C.2     0  <0>0        0.3475
     11  O2         6.3110   36.5530   57.6120 O.2     0  <0>0       -0.2443
     12  O3         7.9420   37.2670   56.2800 O.3     0  <0>0       -0.4410
     13  C9         7.7260   36.4260   55.1440 C.3     0  <0>0        0.2560
     14  C2        12.1650   33.4530   62.4140 C.3     0  <0>0        0.1317
     15  C1        12.6250   34.4530   63.4760 C.3     0  <0>0        0.0217
     16  S2        11.5180   31.9640   63.2250 S.3     0  <0>0       -0.0330
     17  C10       13.0000   30.9850   63.5930 C.3     0  <0>0        0.4442
     18  F1        14.1410   31.7180   63.2460 F       0  <0>0       -0.1602
     19  F2        13.0350   30.6880   64.9600 F       0  <0>0       -0.1602
     20  F3        12.9680   29.7960   62.8570 F       0  <0>0       -0.1602
@<TRIPOS>BOND
     1    13    12    1
     2    12    10    1
     3    10    11    2
     4    10     7    1
     5     7     6   ar
     6     7     8   ar
     7     6     5   ar
     8     8     9   ar
     9     5     9   ar
    10     5     3    1
    11     3     4    1
    12     3     1   am
    13     2     1    2
    14     1    14    1
    15    14    16    1
    16    14    15    1
    17    20    17    1
    18    16    17    1
    19    18    17    1
    20    17    19    1
