@<TRIPOS>MOLECULE
ZINC21250641_replica-1.pdb
 36 40 0 0 0
SMALL
GASTEIGER

@<TRIPOS>ATOM
      1  C11        8.3340   35.1400   59.9210 C.3     0  <0>0        0.0356
      2  C12        7.1250   35.2530   60.8470 C.3     0  <0>0        0.0458
      3  C13        5.8570   35.4230   60.0270 C.2     0  <0>0        0.0262
      4  C14        5.8890   36.0730   58.8510 C.2     0  <0>0        0.0437
      5  C15        4.7090   36.3100   57.9380 C.3     0  <0>0        0.1208
      6  N1         3.4230   36.0080   58.5300 N.pl3   0  <0>0       -0.3261
      7  C16        3.0940   34.7070   58.9010 C.ar    0  <0>0        0.0586
      8  C17        2.0890   34.0050   58.2520 C.ar    0  <0>0        0.0156
      9  C18        1.8370   32.6920   58.6080 C.ar    0  <0>0        0.0013
     10  C19        2.5800   32.0800   59.6020 C.ar    0  <0>0        0.0014
     11  C20        3.5720   32.7830   60.2640 C.ar    0  <0>0        0.0158
     12  C21        3.8110   34.1020   59.9220 C.ar    0  <0>0        0.0614
     13  N2         4.7430   34.8890   60.5910 N.pl3   0  <0>0       -0.3150
     14  C28        7.1080   36.5930   58.3570 C.2     0  <0>0        0.1722
     15  O2         7.1030   37.1980   57.3020 O.2     0  <0>0       -0.2916
     16  C29        8.4060   36.4250   59.0880 C.3     0  <0>0        0.0736
     17  H18        2.6910   36.8120   58.6930 H       0  <0>0        0.1474
     18  H23        4.5250   35.0670   61.6540 H       0  <0>0        0.1520
     19  C8         9.5920   34.9890   60.7380 C.ar    0  <0>0       -0.0215
     20  C7        10.2360   36.1120   61.2260 C.ar    0  <0>0       -0.0011
     21  C6        11.3880   35.9760   61.9760 C.ar    0  <0>0        0.0366
     22  C5        11.8990   34.7130   62.2380 C.ar    0  <0>0        0.1385
     23  C10       11.2520   33.5900   61.7470 C.ar    0  <0>0        0.0366
     24  C9        10.0960   33.7290   61.0030 C.ar    0  <0>0       -0.0011
     25  O1        13.0330   34.5780   62.9740 O.3     0  <0>0       -0.4755
     26  C4        14.1660   34.0000   62.3220 C.3     0  <0>0        0.2053
     27  C2        14.8790   33.0500   63.2850 C.3     0  <0>0        0.0438
     28  C1        15.3210   33.8220   64.5290 C.3     0  <0>0        0.0038
     29  C3        13.9230   31.9270   63.6950 C.3     0  <0>0        0.0038
     30  C22        4.8770   35.4560   56.7080 C.ar    0  <0>0        0.0272
     31  C27        4.3220   35.8580   55.5050 C.ar    0  <0>0        0.1380
     32  C26        4.4800   35.0730   54.3740 C.ar    0  <0>0        0.0294
     33  F1         3.6280   37.0140   55.4340 F       0  <0>0       -0.2044
     34  C25        5.1850   33.8870   54.4500 C.ar    0  <0>0        0.0023
     35  C24        5.7360   33.4850   55.6520 C.ar    0  <0>0       -0.0001
     36  C23        5.5820   34.2690   56.7810 C.ar    0  <0>0       -0.0001
@<TRIPOS>BOND
     1    32    34   ar
     2    32    31   ar
     3    34    35   ar
     4    33    31    1
     5    31    30   ar
     6    35    36   ar
     7    30    36   ar
     8    30     5    1
     9    15    14    2
    10     5     6    1
    11     5     4    1
    12     8     9   ar
    13     8     7   ar
    14    14     4    1
    15    14    16    1
    16     6    17    1
    17     6     7    1
    18     9    10   ar
    19     4     3    2
    20     7    12   ar
    21    16     1    1
    22    10    11   ar
    23     1    19    1
    24     1     2    1
    25    12    11   ar
    26    12    13    1
    27     3    13    1
    28     3     2    1
    29    13    18    1
    30    19    24   ar
    31    19    20   ar
    32    24    23   ar
    33    20    21   ar
    34    23    22   ar
    35    21    22   ar
    36    22    25    1
    37    26    25    1
    38    26    27    1
    39    27    29    1
    40    27    28    1
