@<TRIPOS>MOLECULE
ZINC54557787_replica-1.pdb
 20 20 0 0 0
SMALL
GASTEIGER

@<TRIPOS>ATOM
      1  C8         8.3040   36.2300   58.2320 C.3     0  <0>0        0.0983
      2  C9         9.3780   35.1470   58.1080 C.3     0  <0>0        0.0275
      3  C10        9.7950   34.6800   59.5030 C.3     0  <0>0        0.0024
      4  C11       10.3560   35.8660   60.2910 C.3     0  <0>0        0.0002
      5  C12        9.2830   36.9490   60.4160 C.3     0  <0>0        0.0024
      6  C13        8.8650   37.4160   59.0190 C.3     0  <0>0        0.0275
      7  C4         7.0880   35.6600   58.9640 C.3     0  <0>0        0.1235
      8  C3         6.6560   34.3780   58.2990 C.2     0  <0>0        0.3187
      9  O2         6.5500   34.3280   57.0960 O.2     0  <0>0       -0.2500
     10  O1         6.3890   33.2940   59.0430 O.3     0  <0>0       -0.4484
     11  C2         6.5580   33.4200   60.4570 C.3     0  <0>0        0.2086
     12  C1         5.1980   33.2950   61.1460 C.3     0  <0>0        0.0513
     13  C5         5.9420   36.6730   58.9110 C.3     0  <0>0        0.0129
     14  C6         4.6530   35.9640   58.4910 C.3     0  <0>0        0.0006
     15  C7         5.7520   37.2980   60.2960 C.3     0  <0>0        0.0006
     16  O3         7.9150   36.6660   56.9280 O.3     0  <0>0       -0.3862
     17  H30        8.1320   36.0400   56.2230 H       0  <0>0        0.2103
     18  C14       10.7730   35.4000   61.6870 C.3     0  <0>0        0.0000
     19  C15       11.7970   34.2690   61.5620 C.3     0  <0>0        0.0000
     20  C16       11.3970   36.5690   62.4510 C.3     0  <0>0        0.0000
@<TRIPOS>BOND
     1    17    16    1
     2    16     1    1
     3     9     8    2
     4     2     1    1
     5     2     3    1
     6     1     7    1
     7     1     6    1
     8     8     7    1
     9     8    10    1
    10    14    13    1
    11    13     7    1
    12    13    15    1
    13     6     5    1
    14    10    11    1
    15     3     4    1
    16     4     5    1
    17     4    18    1
    18    11    12    1
    19    19    18    1
    20    18    20    1
