@<TRIPOS>MOLECULE
ZINC19762614_replica-1.pdb
 28 31 0 0 0
SMALL
GASTEIGER

@<TRIPOS>ATOM
      1  C1         2.2800   29.5380   60.7610 C.3     0  <0>0        0.0475
      2  C2         1.4900   29.9470   59.5440 C.2     0  <0>0        0.0317
      3  C3         0.6930   31.0250   59.5970 C.2     0  <0>0        0.0634
      4  C4        -0.1040   31.4660   58.4040 C.3     0  <0>0        0.0826
      5  C5        -0.2150   30.3570   57.3880 C.2     0  <0>0        0.0304
      6  C6         0.6220   29.2990   57.4260 C.2     0  <0>0        0.0248
      7  N1         1.5930   29.2160   58.3880 N.pl3   0  <0>0       -0.3190
      8  C7         0.5120   28.1830   56.4160 C.3     0  <0>0        0.0457
      9  C8        -0.0100   28.7410   55.0900 C.3     0  <0>0        0.0356
     10  C9        -1.3700   29.4020   55.3430 C.3     0  <0>0        0.0736
     11  C10       -1.2110   30.4590   56.4010 C.2     0  <0>0        0.1710
     12  O1        -1.9570   31.4180   56.4030 O.2     0  <0>0       -0.2916
     13  C22        0.6020   31.7710   60.8160 C.1     0  <0>0        0.0976
     14  N3         0.5300   32.3620   61.7840 N.1     0  <0>0       -0.1911
     15  H6         2.3580   28.6360   58.2540 H       0  <0>0        0.1516
     16  C17        0.5740   32.6520   57.7680 C.ar    0  <0>0        0.0057
     17  C21        0.0590   33.9240   57.9310 C.ar    0  <0>0        0.0952
     18  N2         0.6500   34.9670   57.3830 N.ar    0  <0>0       -0.2426
     19  C20        1.7410   34.8410   56.6520 C.ar    0  <0>0        0.0989
     20  C19        2.3100   33.6000   56.4410 C.ar    0  <0>0        0.0204
     21  C18        1.7210   32.4810   57.0070 C.ar    0  <0>0       -0.0005
     22  C11       -0.1650   27.6210   54.0950 C.ar    0  <0>0       -0.0216
     23  C16       -0.8540   27.8340   52.9160 C.ar    0  <0>0       -0.0034
     24  C15       -0.9900   26.8090   51.9990 C.ar    0  <0>0        0.0111
     25  C14       -0.4480   25.5640   52.2670 C.ar    0  <0>0        0.0577
     26  C13        0.2350   25.3490   53.4510 C.ar    0  <0>0        0.0111
     27 Cl         -0.6260   24.2740   51.1200 Cl      0  <0>0       -0.0822
     28  C12        0.3770   26.3770   54.3640 C.ar    0  <0>0       -0.0034
@<TRIPOS>BOND
     1    27    25    1
     2    24    25   ar
     3    24    23   ar
     4    25    26   ar
     5    23    22   ar
     6    26    28   ar
     7    22    28   ar
     8    22     9    1
     9     9    10    1
    10     9     8    1
    11    10    11    1
    12    11    12    2
    13    11     5    1
    14     8     6    1
    15    20    19   ar
    16    20    21   ar
    17    19    18   ar
    18    21    16   ar
    19    18    17   ar
    20     5     6    2
    21     5     4    1
    22     6     7    1
    23    16    17   ar
    24    16     4    1
    25    15     7    1
    26     7     2    1
    27     4     3    1
    28     2     3    2
    29     2     1    1
    30     3    13    1
    31    13    14    3
