@<TRIPOS>MOLECULE
ZINC49153447_replica-1.pdb
 21 23 0 0 0
SMALL
GASTEIGER

@<TRIPOS>ATOM
      1  C10       -0.7940   30.4620   55.6500 C.3     0  <0>0        0.1119
      2  C11       -2.2230   30.9450   55.9110 C.3     0  <0>0        0.0253
      3  C9        -0.8170   29.3560   54.6280 C.ar    0  <0>0        0.1330
      4  C2        -0.2500   28.1520   54.7880 C.ar    0  <0>0        0.0127
      5  C1         0.5100   27.6630   55.9930 C.3     0  <0>0        0.0340
      6  C3        -0.5240   27.4030   53.5550 C.ar    0  <0>0        0.0332
      7  C8        -1.2600   28.2800   52.7390 C.ar    0  <0>0        0.1446
      8  C4        -0.2170   26.1210   53.1050 C.ar    0  <0>0        0.0028
      9  C7        -1.6740   27.8520   51.4840 C.ar    0  <0>0        0.0375
     10  O1        -1.4060   29.4340   53.4210 O.2     0  <0>0       -0.4568
     11  C6        -1.3600   26.5800   51.0560 C.ar    0  <0>0        0.0031
     12  C5        -0.6340   25.7190   51.8670 C.ar    0  <0>0        0.0002
     13  N1         0.0150   31.5790   55.1450 N.3     0  <0>0       -0.2923
     14  H12        0.4280   31.3520   54.2530 H       0  <0>0        0.1236
     15  C12        1.0440   31.9680   56.1190 C.3     0  <0>0        0.0736
     16  C13        0.6410   33.2810   56.7910 C.3     0  <0>0        0.0440
     17  C14        0.6650   33.1080   58.2880 C.ar    0  <0>0       -0.0138
     18  C17        0.8100   31.8770   58.8350 C.ar    0  <0>0        0.0312
     19  S1         0.7750   32.2430   60.5820 S.2     0  <0>0       -0.0863
     20  C16        0.5600   34.0120   60.4640 C.ar    0  <0>0        0.0351
     21  C15        0.5340   34.2020   59.1230 C.ar    0  <0>0        0.0033
@<TRIPOS>BOND
     1    11     9   ar
     2    11    12   ar
     3     9     7   ar
     4    12     8   ar
     5     7    10   ar
     6     7     6   ar
     7     8     6   ar
     8    10     3   ar
     9     6     4   ar
    10    14    13    1
    11     3     4   ar
    12     3     1    1
    13     4     5    1
    14    13     1    1
    15    13    15    1
    16     1     2    1
    17    15    16    1
    18    16    17    1
    19    17    18   ar
    20    17    21   ar
    21    18    19   ar
    22    21    20   ar
    23    20    19   ar
