@<TRIPOS>MOLECULE
ZINC18222961_replica-1.pdb
 24 27 0 0 0
SMALL
GASTEIGER

@<TRIPOS>ATOM
      1  C8         9.5900   35.6100   60.3590 C.3     0  <0>0        0.0356
      2  C9        10.0410   35.0630   59.0030 C.3     0  <0>0        0.0455
      3  C10        9.0210   35.4210   57.9530 C.2     0  <0>0        0.0230
      4  C11        8.2900   36.5930   58.0450 C.2     0  <0>0        0.0458
      5  C12        7.3450   36.9670   56.9890 C.3     0  <0>0        0.1552
      6  N1         6.5590   36.1840   56.3560 N.2     0  <0>0       -0.2678
      7  C13        6.4110   34.8380   56.5330 C.2     0  <0>0        0.0760
      8  C14        5.1360   34.2740   56.4800 C.2     0  <0>0        0.0163
      9  C15        4.9740   32.9090   56.6150 C.2     0  <0>0        0.0010
     10  C16        6.0730   32.0930   56.8020 C.2     0  <0>0       -0.0025
     11  C17        7.3430   32.6440   56.8740 C.2     0  <0>0       -0.0010
     12  C18        7.5160   34.0120   56.7580 C.3     0  <0>0        0.1319
     13  N2         8.7980   34.5640   56.9230 N.pl3   0  <0>0       -0.3295
     14  C19        8.4460   37.4500   59.1590 C.2     0  <0>0        0.1722
     15  O1         7.7780   38.4610   59.2330 O.2     0  <0>0       -0.2916
     16  C20        9.4260   37.1290   60.2540 C.3     0  <0>0        0.0736
     17  H16        9.5150   34.3330   56.3100 H       0  <0>0        0.1471
     18  C6        10.6260   35.2860   61.4040 C.ar    0  <0>0       -0.0220
     19  C5        11.2020   36.3010   62.1450 C.ar    0  <0>0       -0.0043
     20  C4        12.1540   36.0050   63.1040 C.ar    0  <0>0       -0.0006
     21  C3        12.5270   34.6920   63.3220 C.ar    0  <0>0       -0.0043
     22  C2        11.9510   33.6760   62.5830 C.ar    0  <0>0       -0.0222
     23  C1        12.3590   32.2450   62.8210 C.3     0  <0>0        0.0310
     24  C7        11.0040   33.9740   61.6200 C.ar    0  <0>0       -0.0085
@<TRIPOS>BOND
     1    17    13    1
     2     6     7    2
     3     6     5    1
     4     8     7    1
     5     8     9    2
     6     7    12    1
     7     9    10    1
     8    12    11    1
     9    12    13    1
    10    10    11    2
    11    13     3    1
    12     5     4    1
    13     3     4    2
    14     3     2    1
    15     4    14    1
    16     2     1    1
    17    14    15    2
    18    14    16    1
    19    16     1    1
    20     1    18    1
    21    18    24   ar
    22    18    19   ar
    23    24    22   ar
    24    19    20   ar
    25    22    23    1
    26    22    21   ar
    27    20    21   ar
