@<TRIPOS>MOLECULE
ZINC12603939_replica-1.pdb
 26 29 0 0 0
SMALL
GASTEIGER

@<TRIPOS>ATOM
      1  C7        -0.4020   29.2200   54.5750 C.2     0  <0>0        0.1488
      2  C8        -0.5420   29.0030   55.9120 C.3     0  <0>0        0.2090
      3  N1        -0.1810   30.1760   56.5680 N.pl3   0  <0>0       -0.2350
      4  C9        -0.0880   30.6400   57.8630 C.2     0  <0>0        0.0766
      5  C10        0.3140   31.8840   58.1160 C.2     0  <0>0        0.0553
      6  S1         0.6030   32.5210   56.4720 S.3     0  <0>0       -0.0379
      7  C11        0.1580   31.0560   55.5680 C.2     0  <0>0        0.2196
      8  N2         0.0250   30.4970   54.4030 N.2     0  <0>0       -0.3811
      9  N3        -0.9650   27.8170   56.5160 N.am    0  <0>0       -0.2840
     10  C12       -0.0900   27.0680   57.2170 C.2     0  <0>0        0.2283
     11  O1         1.0860   27.3680   57.2370 O.2     0  <0>0       -0.2747
     12  H8        -1.8880   27.5310   56.4300 H       0  <0>0        0.1513
     13  C13       -0.5720   25.8600   57.9770 C.3     0  <0>0        0.1122
     14  C14       -0.1730   24.6090   57.2380 C.ar    0  <0>0       -0.0025
     15  C19       -0.3280   23.3710   57.8380 C.ar    0  <0>0        0.0542
     16  C18        0.0380   22.2230   57.1590 C.ar    0  <0>0        0.0111
     17 Cl         -0.9830   23.2610   59.4420 Cl      0  <0>0       -0.0826
     18  C17        0.5590   22.3120   55.8820 C.ar    0  <0>0        0.0008
     19  C16        0.7130   23.5480   55.2830 C.ar    0  <0>0       -0.0003
     20  C15        0.3430   24.6960   55.9580 C.ar    0  <0>0       -0.0029
     21  C4        -0.6720   28.2380   53.4990 C.ar    0  <0>0        0.0288
     22  C3        -0.0960   26.9700   53.5480 C.ar    0  <0>0        0.0023
     23  C2        -0.3520   26.0590   52.5440 C.ar    0  <0>0        0.0001
     24  C1        -1.1790   26.4030   51.4890 C.ar    0  <0>0        0.0000
     25  C6        -1.7530   27.6600   51.4340 C.ar    0  <0>0        0.0001
     26  C5        -1.5080   28.5770   52.4360 C.ar    0  <0>0        0.0023
@<TRIPOS>BOND
     1    25    24   ar
     2    25    26   ar
     3    24    23   ar
     4    26    21   ar
     5    23    22   ar
     6    21    22   ar
     7    21     1    1
     8     8     1    2
     9     8     7    2
    10     1     2    1
    11    19    18   ar
    12    19    20   ar
    13     7     6    1
    14     7     3    1
    15    18    16   ar
    16     2     9    1
    17     2     3    1
    18    20    14   ar
    19    12     9    1
    20     6     5    1
    21     9    10   am
    22     3     4    1
    23    16    15   ar
    24    10    11    2
    25    10    13    1
    26    14    15   ar
    27    14    13    1
    28    15    17    1
    29     4     5    2
