@<TRIPOS>MOLECULE
ZINC13412878_replica-1.pdb
 29 31 0 0 0
SMALL
GASTEIGER

@<TRIPOS>ATOM
      1  C3         0.9230   30.3360   57.9170 C.2     0  <0>0        0.2631
      2  O1         1.9710   29.9040   58.3510 O.2     0  <0>0       -0.2712
      3  N1         0.5510   31.6010   58.1930 N.am    0  <0>0       -0.2957
      4  H5        -0.2860   31.9470   57.8460 H       0  <0>0        0.1501
      5  C4         1.4100   32.4550   59.0180 C.3     0  <0>0        0.1170
      6  C5         0.7580   32.6800   60.3580 C.ar    0  <0>0       -0.0003
      7  C10        0.2290   33.9180   60.6700 C.ar    0  <0>0       -0.0024
      8  C9        -0.3690   34.1240   61.8990 C.ar    0  <0>0       -0.0003
      9  C8        -0.4390   33.0910   62.8150 C.ar    0  <0>0       -0.0000
     10  C7         0.0900   31.8530   62.5030 C.ar    0  <0>0       -0.0003
     11  C6         0.6870   31.6470   61.2740 C.ar    0  <0>0       -0.0024
     12  C11        1.6110   33.7800   58.3290 C.ar    0  <0>0       -0.0003
     13  C16        2.7770   34.4950   58.5320 C.ar    0  <0>0       -0.0024
     14  C15        2.9620   35.7110   57.8990 C.ar    0  <0>0       -0.0003
     15  C14        1.9800   36.2120   57.0650 C.ar    0  <0>0       -0.0000
     16  C13        0.8150   35.4970   56.8610 C.ar    0  <0>0       -0.0003
     17  C12        0.6320   34.2790   57.4890 C.ar    0  <0>0       -0.0024
     18  C2         0.0400   29.4590   57.0690 C.3     0  <0>0        0.2411
     19  C1        -1.4090   29.5830   57.5430 C.3     0  <0>0        0.0574
     20  O2         0.1310   29.8690   55.7030 O.3     0  <0>0       -0.4700
     21  C17       -0.1430   28.9330   54.7590 C.ar    0  <0>0        0.1391
     22  C22        0.4280   27.6690   54.8510 C.ar    0  <0>0        0.0371
     23  C21        0.1520   26.7160   53.8960 C.ar    0  <0>0        0.0097
     24  C20       -0.7020   27.0210   52.8330 C.ar    0  <0>0        0.0800
     25  C19       -1.2750   28.2940   52.7440 C.ar    0  <0>0        0.0097
     26  C18       -0.9980   29.2400   53.7060 C.ar    0  <0>0        0.0371
     27  C23       -1.0000   26.0050   51.8070 C.2     0  <0>0        0.3878
     28  O3        -1.7440   26.2740   50.8840 O.co2   0  <0>0       -0.2406
     29  O4        -0.4490   24.7780   51.8920 O.co2   0  <0>0       -0.2406
@<TRIPOS>BOND
     1    28    27   ar
     2    27    29   ar
     3    27    24    1
     4    25    24   ar
     5    25    26   ar
     6    24    23   ar
     7    26    21   ar
     8    23    22   ar
     9    21    22   ar
    10    21    20    1
    11    20    18    1
    12    16    15   ar
    13    16    17   ar
    14    15    14   ar
    15    18    19    1
    16    18     1    1
    17    17    12   ar
    18     4     3    1
    19    14    13   ar
    20     1     3   am
    21     1     2    2
    22     3     5    1
    23    12    13   ar
    24    12     5    1
    25     5     6    1
    26     6     7   ar
    27     6    11   ar
    28     7     8   ar
    29    11    10   ar
    30     8     9   ar
    31    10     9   ar
