@<TRIPOS>MOLECULE
ZINC53827330_replica-1.pdb
 19 20 0 0 0
SMALL
GASTEIGER

@<TRIPOS>ATOM
      1  C3         0.0040   28.3100   54.6620 C.3     0  <0>0       -0.0618
      2  N1         0.8200   29.5320   54.6270 N.4     0  <0>0        0.3851
      3  H7         1.3360   29.5660   53.7600 H       0  <0>0       -0.0844
      4  H30        1.4660   29.5260   55.4020 H       0  <0>0       -0.0844
      5  C2        -0.0540   30.7070   54.7260 C.3     0  <0>0       -0.0817
      6  C1         0.5380   31.6990   55.7290 C.3     0  <0>0       -0.0255
      7  C4        -1.3860   28.6430   55.2080 C.3     0  <0>0       -0.0212
      8  C5        -1.5570   28.0050   56.5890 C.3     0  <0>0        0.0030
      9  C9        -0.4650   26.9540   56.8080 C.3     0  <0>0        0.0321
     10  C8        -0.5960   26.3800   58.2200 C.3     0  <0>0        0.1422
     11  O1        -0.5050   27.4380   59.1750 O.3     0  <0>0       -0.3538
     12  C7        -1.5300   28.4260   59.0490 C.3     0  <0>0        0.1422
     13  C6        -1.4360   29.0840   57.6700 C.3     0  <0>0        0.0321
     14  C10       -0.1280   27.7440   53.2470 C.3     0  <0>0       -0.0194
     15  C15       -1.4160   28.2640   52.6080 C.3     0  <0>0       -0.0020
     16  C14       -1.5490   27.6980   51.1920 C.3     0  <0>0       -0.0001
     17  C13       -1.5910   26.1700   51.2560 C.3     0  <0>0       -0.0000
     18  C12       -0.3030   25.6500   51.8950 C.3     0  <0>0       -0.0001
     19  C11       -0.1700   26.2150   53.3110 C.3     0  <0>0       -0.0020
@<TRIPOS>BOND
     1    16    17    1
     2    16    15    1
     3    17    18    1
     4    18    19    1
     5    15    14    1
     6    14    19    1
     7    14     1    1
     8     3     2    1
     9     2     1    1
    10     2     5    1
    11     2     4    1
    12     1     7    1
    13     5     6    1
    14     7     8    1
    15     8     9    1
    16     8    13    1
    17     9    10    1
    18    13    12    1
    19    10    11    1
    20    12    11    1
