@<TRIPOS>MOLECULE
ZINC34651900_replica-1.pdb
 20 22 0 0 0
SMALL
GASTEIGER

@<TRIPOS>ATOM
      1  C1        12.9960   31.2550   63.4780 C.3     0  <0>0        0.0268
      2  C2        12.4350   32.5410   62.9270 C.2     0  <0>0       -0.0370
      3  C3        13.0790   33.7370   63.2080 C.3     0  <0>0        0.0487
      4  C4        12.5650   34.9170   62.7020 C.2     0  <0>0       -0.0126
      5  C5        11.4290   34.8870   61.9320 C.2     0  <0>0        0.0587
      6  C6        10.7460   33.6890   61.6260 C.2     0  <0>0        0.1387
      7  C7        11.3030   32.5010   62.1540 C.2     0  <0>0        0.0245
      8  N1         9.6430   33.8230   60.8570 N.2     0  <0>0       -0.3803
      9  C8         9.2260   34.9890   60.4200 C.2     0  <0>0        0.2115
     10  S1        10.4430   36.1080   61.1000 S.3     0  <0>0       -0.0380
     11  N2         8.1280   35.2770   59.6350 N.pl3   0  <0>0       -0.3049
     12  H10        7.2510   34.9490   59.8890 H       0  <0>0        0.1496
     13  C9         8.2870   36.0760   58.4170 C.3     0  <0>0        0.0717
     14  C14        7.1210   37.0590   58.2970 C.3     0  <0>0        0.0180
     15  C13        7.2870   37.8940   57.0250 C.3     0  <0>0        0.0016
     16  C15        7.1040   37.9830   59.5160 C.3     0  <0>0        0.0017
     17  C12        7.3040   36.9690   55.8070 C.3     0  <0>0        0.0001
     18  C16        8.6030   38.6710   57.0940 C.3     0  <0>0        0.0001
     19  C11        8.4700   35.9860   55.9280 C.3     0  <0>0        0.0017
     20  C10        8.3050   35.1520   57.1980 C.3     0  <0>0        0.0196
@<TRIPOS>BOND
     1    17    19    1
     2    17    15    1
     3    19    20    1
     4    15    18    1
     5    15    14    1
     6    20    13    1
     7    14    13    1
     8    14    16    1
     9    13    11    1
    10    11    12    1
    11    11     9    1
    12     9     8    2
    13     9    10    1
    14     8     6    2
    15    10     5    1
    16     6     5    1
    17     6     7    1
    18     5     4    2
    19     7     2    2
    20     4     3    1
    21     2     3    1
    22     2     1    1
