@<TRIPOS>MOLECULE
ZINC58847518_replica-1.pdb
 33 37 0 0 0
SMALL
GASTEIGER

@<TRIPOS>ATOM
      1  C7         9.1690   36.7370   59.2040 C.3     0  <0>0        0.0921
      2  C8         7.8590   37.1160   59.8260 C.3     0  <0>0        0.0262
      3  C9         7.3620   36.0600   60.8350 C.3     0  <0>0        0.0023
      4  C10        5.8550   36.2100   60.8030 C.3     0  <0>0        0.0004
      5  C11        5.4720   36.8560   59.7320 C.3     0  <0>0        0.0045
      6  C12        6.6660   37.2020   58.8770 C.3     0  <0>0        0.0255
      7  C13        6.7350   36.2100   57.7510 C.ar    0  <0>0       -0.0080
      8  C14        5.5850   35.9790   57.0060 C.ar    0  <0>0        0.0171
      9  C15        5.5950   35.0690   55.9700 C.ar    0  <0>0        0.1249
     10  C16        6.7530   34.3770   55.6630 C.ar    0  <0>0        0.0214
     11  C17        7.9010   34.6030   56.3940 C.ar    0  <0>0        0.0154
     12  C18        7.8940   35.5250   57.4370 C.ar    0  <0>0        0.0408
     13  N1         9.0660   35.7730   58.1280 N.pl3   0  <0>0       -0.3308
     14  H15        9.8500   35.2530   57.8920 H       0  <0>0        0.1471
     15  S1         4.1290   34.7870   55.0340 S.O2    0  <0>0        0.0736
     16  O1         3.2820   35.9050   55.2590 O.2     0  <0>0       -0.1499
     17  O2         4.5470   34.3970   53.7330 O.2     0  <0>0       -0.1499
     18  N2         3.3680   33.4750   55.6990 N.pl3   0  <0>0       -0.2150
     19  H16        3.4410   32.6050   55.2750 H       0  <0>0        0.1737
     20  C19        2.6230   33.6210   56.8720 C.ar    0  <0>0        0.0648
     21  C24        3.2610   33.6290   58.1050 C.ar    0  <0>0        0.0167
     22  C23        2.5220   33.7800   59.2630 C.ar    0  <0>0        0.0127
     23  C22        1.1470   33.9110   59.1950 C.ar    0  <0>0        0.0578
     24  C21        0.5070   33.8980   57.9670 C.ar    0  <0>0        0.0127
     25 Cl          0.2200   34.0940   60.6510 Cl      0  <0>0       -0.0822
     26  C20        1.2420   33.7540   56.8060 C.ar    0  <0>0        0.0167
     27  C6        10.0570   36.1600   60.2760 C.ar    0  <0>0       -0.0045
     28  C1        10.5460   34.8730   60.1500 C.ar    0  <0>0       -0.0018
     29  C2        11.3610   34.3430   61.1330 C.ar    0  <0>0        0.0111
     30  C3        11.6880   35.1020   62.2430 C.ar    0  <0>0        0.0577
     31  C4        11.1990   36.3900   62.3690 C.ar    0  <0>0        0.0111
     32 Cl         12.7110   34.4370   63.4780 Cl      0  <0>0       -0.0822
     33  C5        10.3840   36.9190   61.3850 C.ar    0  <0>0       -0.0018
@<TRIPOS>BOND
     1    17    15    2
     2    15    16    2
     3    15    18    1
     4    15     9    1
     5    19    18    1
     6    10     9   ar
     7    10    11   ar
     8    18    20    1
     9     9     8   ar
    10    11    12   ar
    11    26    20   ar
    12    26    24   ar
    13    20    21   ar
    14     8     7   ar
    15    12     7   ar
    16    12    13    1
    17     7     6    1
    18    14    13    1
    19    24    23   ar
    20    21    22   ar
    21    13     1    1
    22     6     5    1
    23     6     2    1
    24    23    22   ar
    25    23    25    1
    26     1     2    1
    27     1    27    1
    28     5     4    1
    29     2     3    1
    30    28    27   ar
    31    28    29   ar
    32    27    33   ar
    33     4     3    1
    34    29    30   ar
    35    33    31   ar
    36    30    31   ar
    37    30    32    1
