@<TRIPOS>MOLECULE
ZINC37876438_replica-1.pdb
 23 24 0 0 0
SMALL
GASTEIGER

@<TRIPOS>ATOM
      1  C10        7.9070   38.1120   58.4160 C.3     0  <0>0        0.1521
      2  C7         8.8190   37.1670   59.1540 C.ar    0  <0>0        0.0059
      3  C6         9.1610   35.9530   58.5890 C.ar    0  <0>0       -0.0022
      4  C5         9.9980   35.0860   59.2660 C.ar    0  <0>0       -0.0045
      5  C4        10.4960   35.4340   60.5080 C.ar    0  <0>0       -0.0225
      6  C9        10.1500   36.6470   61.0750 C.ar    0  <0>0       -0.0045
      7  C8         9.3160   37.5160   60.3960 C.ar    0  <0>0       -0.0022
      8  C2        11.4080   34.4900   61.2460 C.3     0  <0>0        0.0224
      9  C1        12.0080   35.2050   62.4590 C.3     0  <0>0        0.0047
     10  C3        10.6100   33.2720   61.7150 C.3     0  <0>0        0.0047
     11  C11        8.5860   38.5720   57.1240 C.3     0  <0>0        0.1214
     12  N1         7.6260   38.5140   56.0190 N.pl3   0  <0>0       -0.3286
     13  H15        7.5220   39.2750   55.4260 H       0  <0>0        0.1470
     14  C12        6.8580   37.3620   55.8180 C.ar    0  <0>0        0.0748
     15  C17        7.4730   36.1740   55.4390 C.ar    0  <0>0        0.1532
     16  C16        6.7110   35.0360   55.2460 C.ar    0  <0>0        0.0332
     17  F1         8.8110   36.1300   55.2630 F       0  <0>0       -0.2029
     18  C15        5.3410   35.0800   55.4190 C.ar    0  <0>0        0.0320
     19  C14        4.7250   36.2650   55.7920 C.ar    0  <0>0        0.1415
     20  C13        5.4830   37.4050   55.9920 C.ar    0  <0>0        0.0462
     21  F2         3.3850   36.3050   55.9610 F       0  <0>0       -0.2041
     22  O1         7.6300   39.2470   59.2380 O.3     0  <0>0       -0.3783
     23  H19        7.7260   40.0950   58.7840 H       0  <0>0        0.2109
@<TRIPOS>BOND
     1    16    18   ar
     2    16    15   ar
     3    17    15    1
     4    18    19   ar
     5    13    12    1
     6    15    14   ar
     7    19    21    1
     8    19    20   ar
     9    14    20   ar
    10    14    12    1
    11    12    11    1
    12    11     1    1
    13     1     2    1
    14     1    22    1
    15     3     2   ar
    16     3     4   ar
    17    23    22    1
    18     2     7   ar
    19     4     5   ar
    20     7     6   ar
    21     5     6   ar
    22     5     8    1
    23     8    10    1
    24     8     9    1
