@<TRIPOS>MOLECULE
ZINC34252817_replica-1.pdb
 19 21 0 0 0
SMALL
GASTEIGER

@<TRIPOS>ATOM
      1  C7         8.0340   36.3770   57.4260 C.2     0  <0>0        0.0674
      2  C8         8.5960   36.7260   56.2520 C.2     0  <0>0        0.0544
      3  S1         7.1780   36.7660   55.1660 S.3     0  <0>0       -0.0376
      4  C9         5.9450   36.3130   56.3680 C.2     0  <0>0        0.2235
      5  N1         6.6750   36.1520   57.5150 N.am    0  <0>0       -0.2062
      6  C10        5.9800   35.7900   58.6340 C.2     0  <0>0        0.2421
      7  O1         6.5670   35.6340   59.6940 O.2     0  <0>0       -0.2737
      8  C11        4.5990   35.5990   58.5660 C.3     0  <0>0        0.1416
      9  C12        3.9440   35.7780   57.3660 C.2     0  <0>0        0.1145
     10  N2         4.6490   36.1410   56.2980 N.2     0  <0>0       -0.3867
     11  C6         8.8830   36.2270   58.6280 C.ar    0  <0>0        0.0147
     12  C1         9.5840   35.0400   58.8460 C.ar    0  <0>0        0.0018
     13  C2        10.3740   34.9050   59.9690 C.ar    0  <0>0        0.0067
     14  C3        10.4730   35.9440   60.8780 C.ar    0  <0>0        0.0346
     15  C4         9.7810   37.1240   60.6670 C.ar    0  <0>0        0.0067
     16 Br         11.5590   35.7510   62.4150 Br      0  <0>0       -0.0490
     17  C5         8.9870   37.2700   59.5480 C.ar    0  <0>0        0.0018
     18  C13        2.4540   35.5770   57.2700 C.3     0  <0>0        0.1494
     19 Cl          1.7100   35.8100   58.8950 Cl      0  <0>0       -0.1060
@<TRIPOS>BOND
     1     3     2    1
     2     3     4    1
     3     2     1    2
     4    10     4    2
     5    10     9    2
     6     4     5    1
     7    18     9    1
     8    18    19    1
     9     9     8    1
    10     1     5    1
    11     1    11    1
    12     5     6   am
    13     8     6    1
    14    11    12   ar
    15    11    17   ar
    16     6     7    2
    17    12    13   ar
    18    17    15   ar
    19    13    14   ar
    20    15    14   ar
    21    14    16    1
