@<TRIPOS>MOLECULE
ZINC35678335_replica-1.pdb
 30 34 0 0 0
SMALL
GASTEIGER

@<TRIPOS>ATOM
      1  C7         8.5330   34.8680   59.9370 C.3     0  <0>0        0.0636
      2  C8         7.5470   35.5640   60.8550 C.3     0  <0>0        0.0081
      3  C9         6.7630   36.5350   59.9270 C.3     0  <0>0        0.0070
      4  C10        5.5790   35.7800   59.3400 C.3     0  <0>0        0.0004
      5  C11        5.9160   34.3190   59.0470 C.3     0  <0>0        0.0000
      6  C12        4.6160   33.5950   58.6880 C.3     0  <0>0        0.0001
      7  C13        3.9870   34.2050   57.4410 C.3     0  <0>0        0.0024
      8  C14        4.7570   33.7650   56.2020 C.3     0  <0>0        0.0292
      9  C15        3.9990   34.2540   54.9650 C.3     0  <0>0        0.1105
     10  C16        4.0130   35.7820   54.9740 C.3     0  <0>0        0.0292
     11  C17        3.3570   36.3350   56.2240 C.3     0  <0>0        0.0025
     12  C18        3.8210   35.7090   57.5370 C.3     0  <0>0        0.0002
     13  C19        5.0500   36.4370   58.0710 C.3     0  <0>0        0.0000
     14  C20        6.1660   36.5100   57.0330 C.3     0  <0>0        0.0004
     15  C21        7.2860   37.3970   57.5840 C.3     0  <0>0        0.0069
     16  C22        7.8390   36.8660   58.8820 C.3     0  <0>0        0.0515
     17  C23        8.6360   35.5970   58.7280 C.2     0  <0>0        0.1498
     18  O1         9.2570   35.2560   57.7400 O.2     0  <0>0       -0.2961
     19  C24        8.7670   37.9380   59.4710 C.3     0  <0>0        0.0073
     20  C25        2.6680   35.9730   58.5470 C.3     0  <0>0        0.0000
     21  C6         9.2060   33.7260   60.2240 C.3     0  <0>0        0.0549
     22  C5        10.3770   33.7640   61.1100 C.ar    0  <0>0        0.0805
     23  C4        11.2090   34.8840   61.3590 C.ar    0  <0>0        0.0367
     24  C3        12.1480   34.4500   62.2310 C.ar    0  <0>0        0.0963
     25  N1        11.8890   33.1430   62.4840 N.ar    0  <0>0       -0.2498
     26  N2        10.8580   32.7600   61.8200 N.ar    0  <0>0       -0.1736
     27  C2        12.6730   32.2900   63.3800 C.3     0  <0>0        0.1276
     28  C1        14.1590   32.6200   63.2270 C.3     0  <0>0        0.0284
     29  O2         4.6440   33.7720   53.7850 O.3     0  <0>0       -0.3845
     30  H36        5.5400   34.1140   53.6570 H       0  <0>0        0.2103
@<TRIPOS>BOND
     1    30    29    1
     2    29     9    1
     3     9    10    1
     4     9     8    1
     5    10    11    1
     6     8     7    1
     7    11    12    1
     8    14    15    1
     9    14    13    1
    10     7    12    1
    11     7     6    1
    12    12    13    1
    13    12    20    1
    14    15    16    1
    15    18    17    2
    16    13     4    1
    17     6     5    1
    18    17    16    1
    19    17     1    1
    20    16    19    1
    21    16     3    1
    22     5     4    1
    23     4     3    1
    24     3     2    1
    25     1    21    1
    26     1     2    1
    27    21    22    1
    28    22    23   ar
    29    22    26   ar
    30    23    24   ar
    31    26    25   ar
    32    24    25   ar
    33    25    27    1
    34    28    27    1
