@<TRIPOS>MOLECULE
ZINC13198621_replica-1.pdb
 24 25 0 0 0
SMALL
GASTEIGER

@<TRIPOS>ATOM
      1  S1         7.9980   37.8940   58.0610 S.O2    0  <0>0        0.0602
      2  O2         8.8260   38.2660   56.9670 O.2     0  <0>0       -0.1530
      3  O3         7.3430   38.8510   58.8820 O.2     0  <0>0       -0.1530
      4  C3         8.9930   36.9100   59.1320 C.ar    0  <0>0        0.1219
      5  C2         9.3600   37.3990   60.3730 C.ar    0  <0>0        0.0201
      6  C1        10.1380   36.6330   61.2180 C.ar    0  <0>0        0.0079
      7  C6        10.5550   35.3630   60.8160 C.ar    0  <0>0        0.0799
      8  C5        10.1810   34.8760   59.5620 C.ar    0  <0>0        0.0079
      9  C4         9.3980   35.6500   58.7310 C.ar    0  <0>0        0.0201
     10  C7        11.3890   34.5370   61.7140 C.2     0  <0>0        0.3878
     11  O1        12.3620   35.0230   62.2560 O.co2   0  <0>0       -0.2406
     12  O4        11.0710   33.2470   61.9330 O.co2   0  <0>0       -0.2406
     13  N1         6.8180   36.9090   57.4470 N.3     0  <0>0       -0.1785
     14  H5         6.0510   36.6720   57.9930 H       0  <0>0        0.1488
     15  C8         6.9300   36.3930   56.0810 C.3     0  <0>0        0.1034
     16  C9         5.5940   35.7810   55.6540 C.3     0  <0>0        0.0810
     17  S2         5.8280   34.0220   55.2750 S.3     0  <0>0       -0.1122
     18  C10        6.5260   33.3570   56.7500 C.ar    0  <0>0        0.0253
     19  C15        5.8520   33.4850   57.9580 C.ar    0  <0>0        0.0070
     20  C14        6.4010   32.9630   59.1130 C.ar    0  <0>0        0.0119
     21  C13        7.6230   32.3130   59.0660 C.ar    0  <0>0        0.0577
     22  C12        8.2960   32.1840   57.8640 C.ar    0  <0>0        0.0119
     23 Cl          8.3110   31.6570   60.5190 Cl      0  <0>0       -0.0822
     24  C11        7.7510   32.7040   56.7060 C.ar    0  <0>0        0.0070
@<TRIPOS>BOND
     1    17    16    1
     2    17    18    1
     3    16    15    1
     4    15    13    1
     5    24    18   ar
     6    24    22   ar
     7    18    19   ar
     8     2     1    2
     9    13    14    1
    10    13     1    1
    11    22    21   ar
    12    19    20   ar
    13     1     3    2
    14     1     4    1
    15     9     4   ar
    16     9     8   ar
    17    21    20   ar
    18    21    23    1
    19     4     5   ar
    20     8     7   ar
    21     5     6   ar
    22     7     6   ar
    23     7    10    1
    24    10    12   ar
    25    10    11   ar
