@<TRIPOS>MOLECULE
ZINC35257340_replica-1.pdb
 19 19 0 0 0
SMALL
GASTEIGER

@<TRIPOS>ATOM
      1  N1         8.5930   36.7830   58.9310 N.4     0  <0>0        0.3876
      2  H16        8.8480   37.7590   58.9660 H       0  <0>0       -0.0842
      3  H34        8.9250   36.3800   58.0680 H       0  <0>0       -0.0842
      4  C6         9.1970   36.0770   60.0680 C.3     0  <0>0       -0.0617
      5  C5        10.0320   37.0570   60.8920 C.3     0  <0>0       -0.0213
      6  C4        10.6620   36.3210   62.0770 C.3     0  <0>0       -0.0021
      7  C3        11.5610   35.1970   61.5580 C.3     0  <0>0       -0.0001
      8  C8        10.7260   34.2150   60.7330 C.3     0  <0>0       -0.0021
      9  C7        10.0960   34.9520   59.5490 C.3     0  <0>0       -0.0213
     10  C2        12.1920   34.4600   62.7420 C.3     0  <0>0       -0.0000
     11  C1        13.6160   34.0380   62.3800 C.3     0  <0>0       -0.0000
     12  C9         7.1310   36.6570   58.9970 C.3     0  <0>0       -0.0458
     13  C10        6.7600   35.2420   59.4450 C.3     0  <0>0       -0.0215
     14  C11        6.5770   37.6710   60.0010 C.3     0  <0>0       -0.0215
     15  C12        6.5310   36.9280   57.6160 C.3     0  <0>0       -0.0195
     16  C13        7.6460   37.3180   56.6440 C.3     0  <0>0       -0.0019
     17  C14        8.4960   38.4310   57.2610 C.3     0  <0>0       -0.0001
     18  C15        8.5280   36.0990   56.3640 C.3     0  <0>0       -0.0001
     19  C16        7.0300   37.8130   55.3340 C.3     0  <0>0       -0.0001
@<TRIPOS>BOND
     1    19    16    1
     2    18    16    1
     3    16    17    1
     4    16    15    1
     5    15    12    1
     6     3     1    1
     7     1     2    1
     8     1    12    1
     9     1     4    1
    10    12    13    1
    11    12    14    1
    12     9     4    1
    13     9     8    1
    14     4     5    1
    15     8     7    1
    16     5     6    1
    17     7     6    1
    18     7    10    1
    19    11    10    1
