@<TRIPOS>MOLECULE
ZINC32230428_replica-1.pdb
 25 26 0 0 0
SMALL
GASTEIGER

@<TRIPOS>ATOM
      1  C9         8.1450   31.2770   57.9770 C.3     0  <0>0        0.1735
      2  C8         7.5480   32.1310   56.8580 C.3     0  <0>0        0.1206
      3  N1         8.3630   33.3350   56.6750 N.pl3   0  <0>0       -0.3306
      4  H8         9.4570   33.2520   56.6060 H       0  <0>0        0.1469
      5  C6         7.7490   34.5870   56.5900 C.ar    0  <0>0        0.0441
      6  C5         6.3940   34.6790   56.3010 C.ar    0  <0>0        0.0100
      7  C4         5.7880   35.9180   56.2230 C.ar    0  <0>0       -0.0209
      8  C3         6.5310   37.0660   56.4340 C.ar    0  <0>0       -0.0084
      9  C20        4.3190   36.0200   55.9100 C.3     0  <0>0        0.0311
     10  C2         7.8810   36.9780   56.7210 C.ar    0  <0>0       -0.0209
     11  C1         8.6860   38.2310   56.9490 C.3     0  <0>0        0.0311
     12  C7         8.4920   35.7420   56.8000 C.ar    0  <0>0        0.0100
     13  C10        7.8950   31.9540   59.3260 C.3     0  <0>0        0.2361
     14  O1         9.0850   32.6200   59.7520 O.3     0  <0>0       -0.4728
     15  C11        8.9980   33.9580   59.9750 C.ar    0  <0>0        0.1384
     16  C16        7.7570   34.5550   60.1450 C.ar    0  <0>0        0.0326
     17  C15        7.6710   35.9140   60.3770 C.ar    0  <0>0       -0.0195
     18  C14        8.8200   36.6810   60.4300 C.ar    0  <0>0       -0.0041
     19  C13       10.0570   36.0900   60.2550 C.ar    0  <0>0        0.0028
     20  C12       10.1490   34.7310   60.0280 C.ar    0  <0>0        0.0369
     21  C17        6.3240   36.5620   60.5670 C.3     0  <0>0        0.0225
     22  C18        6.3390   37.9600   59.9480 C.3     0  <0>0        0.0047
     23  C19        5.2490   35.7130   59.8830 C.3     0  <0>0        0.0047
     24  O2         7.5310   29.9870   57.9720 O.3     0  <0>0       -0.3791
     25  H24        7.5750   29.3520   58.8690 H       0  <0>0        0.2106
@<TRIPOS>BOND
     1     9     7    1
     2     7     6   ar
     3     7     8   ar
     4     6     5   ar
     5     8    10   ar
     6     5     3    1
     7     5    12   ar
     8     4     3    1
     9     3     2    1
    10    10    12   ar
    11    10    11    1
    12     2     1    1
    13    24     1    1
    14    24    25    1
    15     1    13    1
    16    13    14    1
    17    14    15    1
    18    23    21    1
    19    22    21    1
    20    15    20   ar
    21    15    16   ar
    22    20    19   ar
    23    16    17   ar
    24    19    18   ar
    25    17    18   ar
    26    17    21    1
