@<TRIPOS>MOLECULE
ZINC03878905_replica-1.pdb
 27 29 0 0 0
SMALL
GASTEIGER

@<TRIPOS>ATOM
      1  C1         7.9690   38.6650   58.5780 C.3     0  <0>0        0.0630
      2  C2         8.5770   37.2930   58.7160 C.2     0  <0>0        0.1074
      3  C3         8.3260   36.3190   57.7680 C.3     0  <0>0        0.1211
      4  C4         8.9150   35.0630   57.9310 C.2     0  <0>0        0.1793
      5  N1         9.6870   34.8460   58.9890 N.2     0  <0>0       -0.3287
      6  C5         9.8990   35.8050   59.8790 C.1     0  <0>0        0.1381
      7  N2         9.3530   37.0070   59.7500 N.2     0  <0>0       -0.3482
      8  N3         8.6940   34.0570   57.0020 N.pl3   0  <0>0       -0.2905
      9  H9         9.0130   34.1600   56.0910 H       0  <0>0        0.1543
     10  C12        8.0130   32.8960   57.3780 C.ar    0  <0>0        0.0500
     11  C17        8.6440   31.9430   58.1680 C.ar    0  <0>0        0.0164
     12  C16        7.9680   30.7980   58.5380 C.ar    0  <0>0        0.0253
     13  C15        6.6640   30.5980   58.1230 C.ar    0  <0>0        0.1430
     14  C14        6.0320   31.5440   57.3370 C.ar    0  <0>0        0.0253
     15  C13        6.7010   32.6950   56.9680 C.ar    0  <0>0        0.0164
     16  N4         5.9420   29.3700   58.5230 N.pl3   0  <0>0        0.0577
     17  O1         6.5570   28.3330   58.7050 O.2     0  <0>0       -0.1261
     18  O2         4.7330   29.3940   58.6690 O.2     0  <0>0       -0.1261
     19  C18        7.4420   36.6080   56.5820 C.3     0  <0>0        0.0412
     20  C19        6.0050   36.3320   56.9460 C.2     0  <0>0       -0.0253
     21  C20        5.1410   36.0250   56.0120 C.2     0  <0>0       -0.0049
     22  C6        10.7680   35.5270   61.0490 C.ar    0  <0>0        0.0856
     23  C11       11.3510   34.2700   61.2030 C.ar    0  <0>0        0.0120
     24  C10       12.1580   34.0170   62.2930 C.ar    0  <0>0        0.0007
     25  C9        12.3890   35.0070   63.2320 C.ar    0  <0>0        0.0000
     26  C8        11.8130   36.2550   63.0830 C.ar    0  <0>0        0.0007
     27  C7        11.0080   36.5220   61.9950 C.ar    0  <0>0        0.0120
@<TRIPOS>BOND
     1    21    20    2
     2     9     8    1
     3    19    20    1
     4    19     3    1
     5    15    14   ar
     6    15    10   ar
     7     8    10    1
     8     8     4    1
     9    14    13   ar
    10    10    11   ar
    11     3     4    1
    12     3     2    1
    13     4     5    2
    14    13    16    1
    15    13    12   ar
    16    11    12   ar
    17    16    18    2
    18    16    17    2
    19     1     2    1
    20     2     7    2
    21     5     6    2
    22     7     6    2
    23     6    22    1
    24    22    23   ar
    25    22    27   ar
    26    23    24   ar
    27    27    26   ar
    28    24    25   ar
    29    26    25   ar
