@<TRIPOS>MOLECULE
ZINC04775030_replica-1.pdb
 20 21 0 0 0
SMALL
GASTEIGER

@<TRIPOS>ATOM
      1  C4        13.5090   32.9930   62.3640 C.3     0  <0>0        0.1204
      2  C5        12.6800   31.7570   62.7310 C.3     0  <0>0        0.0570
      3  C6        11.3650   32.2160   63.3700 C.3     0  <0>0        0.1475
      4  O1        10.7100   33.1280   62.4830 O.3     0  <0>0       -0.3270
      5  C7        11.4960   34.2750   62.1540 C.3     0  <0>0        0.2599
      6  O2        12.7180   33.8550   61.5410 O.3     0  <0>0       -0.3296
      7  C8        10.7300   35.1510   61.1960 C.ar    0  <0>0        0.0338
      8  C13       10.3950   34.6730   59.9420 C.ar    0  <0>0        0.0037
      9  C12        9.6920   35.4740   59.0620 C.ar    0  <0>0        0.0367
     10  C11        9.3230   36.7580   59.4380 C.ar    0  <0>0        0.1385
     11  C10        9.6600   37.2340   60.6950 C.ar    0  <0>0        0.0367
     12  C9        10.3570   36.4280   61.5740 C.ar    0  <0>0        0.0037
     13  O3         8.6320   37.5470   58.5730 O.3     0  <0>0       -0.4755
     14  C14        8.3990   37.0250   57.2630 C.3     0  <0>0        0.2055
     15  C15        7.8090   38.1220   56.3750 C.3     0  <0>0        0.0512
     16  C3        13.9160   33.7340   63.6390 C.3     0  <0>0        0.0297
     17  C2        15.4200   34.0160   63.6070 C.3     0  <0>0        0.0025
     18  C1        15.9640   34.0400   65.0370 C.3     0  <0>0        0.0001
     19  C16       13.4590   30.8930   63.7250 C.3     0  <0>0        0.0049
     20  C17       12.5300   29.8330   64.3170 C.3     0  <0>0        0.0002
@<TRIPOS>BOND
     1    15    14    1
     2    14    13    1
     3    13    10    1
     4     9    10   ar
     5     9     8   ar
     6    10    11   ar
     7     8     7   ar
     8    11    12   ar
     9     7    12   ar
    10     7     5    1
    11     6     5    1
    12     6     1    1
    13     5     4    1
    14     1     2    1
    15     1    16    1
    16     4     3    1
    17     2     3    1
    18     2    19    1
    19    17    16    1
    20    17    18    1
    21    19    20    1
