@<TRIPOS>MOLECULE
ZINC04733260_replica-1.pdb
 27 29 0 0 0
SMALL
GASTEIGER

@<TRIPOS>ATOM
      1  C9        10.7210   34.7720   61.3290 C.3     0  <0>0        0.2101
      2  N3         9.8280   34.1840   60.4920 N.3     0  <0>0       -0.0883
      3  N2         9.8830   34.4160   59.2240 N.pl3   0  <0>0       -0.1465
      4  C6         8.7330   34.5350   58.5010 C.ar    0  <0>0        0.0854
      5  C5         7.5310   34.0250   59.0050 C.ar    0  <0>0        0.0190
      6  C4         6.3720   34.1480   58.2730 C.ar    0  <0>0        0.0159
      7  C3         6.3940   34.7790   57.0330 C.ar    0  <0>0        0.0480
      8  C8         7.5880   35.2880   56.5280 C.ar    0  <0>0        0.0159
      9  C7         8.7490   35.1750   57.2560 C.ar    0  <0>0        0.0190
     10  N1         5.2190   34.9020   56.2940 N.pl3   0  <0>0       -0.3041
     11  C1         5.0560   34.1510   55.0460 C.3     0  <0>0        0.1122
     12  C2         4.1460   35.7810   56.7650 C.3     0  <0>0        0.1122
     13  N4        10.6590   36.0630   61.5540 N.3     0  <0>0       -0.1105
     14  N5         9.4370   36.6560   61.9010 N.pl3   0  <0>0       -0.2598
     15  H11        9.1660   36.6970   62.8310 H       0  <0>0        0.1680
     16  C10        8.6130   37.1850   60.9100 C.ar    0  <0>0        0.0595
     17  C15        9.1620   37.9130   59.8620 C.ar    0  <0>0        0.0156
     18  C14        8.3420   38.4360   58.8820 C.ar    0  <0>0        0.0013
     19  C13        6.9750   38.2350   58.9430 C.ar    0  <0>0        0.0001
     20  C12        6.4240   37.5110   59.9840 C.ar    0  <0>0        0.0013
     21  C11        7.2380   36.9850   60.9680 C.ar    0  <0>0        0.0156
     22  C16       11.7670   33.9540   61.9880 C.ar    0  <0>0        0.0134
     23  C21       13.0860   34.4050   62.0280 C.ar    0  <0>0       -0.0014
     24  C20       14.0550   33.6390   62.6440 C.ar    0  <0>0       -0.0002
     25  C19       13.7200   32.4260   63.2190 C.ar    0  <0>0       -0.0000
     26  C18       12.4130   31.9740   63.1830 C.ar    0  <0>0       -0.0002
     27  C17       11.4340   32.7340   62.5750 C.ar    0  <0>0       -0.0014
@<TRIPOS>BOND
     1    11    10    1
     2    10    12    1
     3    10     7    1
     4     8     7   ar
     5     8     9   ar
     6     7     6   ar
     7     9     4   ar
     8     6     5   ar
     9     4     5   ar
    10     4     3    1
    11    18    19   ar
    12    18    17   ar
    13    19    20   ar
    14     3     2    1
    15    17    16   ar
    16    20    21   ar
    17     2     1    1
    18    16    21   ar
    19    16    14    1
    20     1    13    1
    21     1    22    1
    22    13    14    1
    23    14    15    1
    24    22    23   ar
    25    22    27   ar
    26    23    24   ar
    27    27    26   ar
    28    24    25   ar
    29    26    25   ar
