@<TRIPOS>MOLECULE
ZINC42439684_replica-1.pdb
 18 18 0 0 0
SMALL
GASTEIGER

@<TRIPOS>ATOM
      1  N1        11.1430   34.1980   61.7950 N.ar    0  <0>0       -0.2408
      2  C6        10.9140   35.5290   61.7990 C.ar    0  <0>0        0.1344
      3  C7         9.9870   35.7910   60.8470 C.ar    0  <0>0        0.0502
      4  C8         9.6390   34.5800   60.2400 C.ar    0  <0>0        0.0785
      5  N2        10.3350   33.6260   60.8040 N.ar    0  <0>0       -0.1732
      6 Cl         11.6710   36.6940   62.8400 Cl      0  <0>0       -0.0619
      7  C5        12.0760   33.4810   62.6670 C.3     0  <0>0        0.1284
      8  C4        13.5110   33.8780   62.3170 C.3     0  <0>0        0.0264
      9  C2        14.4890   32.9540   63.0450 C.3     0  <0>0        0.0020
     10  C1        15.1980   33.7350   64.1540 C.3     0  <0>0        0.0001
     11  C3        13.7220   31.7810   63.6570 C.3     0  <0>0        0.0001
     12  C9         8.6400   34.4040   59.1260 C.3     0  <0>0        0.0370
     13  C10        9.0360   35.2890   57.9420 C.3     0  <0>0        0.0060
     14  C11        8.6200   32.9400   58.6840 C.3     0  <0>0        0.0060
     15  C12        7.2490   34.8070   59.6210 C.3     0  <0>0        0.0060
     16  C13        9.4300   37.1480   60.5010 C.3     0  <0>0        0.1672
     17  O1         8.3890   37.4840   61.4210 O.3     0  <0>0       -0.3771
     18  H23        8.7000   37.9300   62.2210 H       0  <0>0        0.2109
@<TRIPOS>BOND
     1    13    12    1
     2    14    12    1
     3    12    15    1
     4    12     4    1
     5     4     5   ar
     6     4     3   ar
     7    16     3    1
     8    16    17    1
     9     5     1   ar
    10     3     2   ar
    11    17    18    1
    12     1     2   ar
    13     1     7    1
    14     2     6    1
    15     8     7    1
    16     8     9    1
    17     9    11    1
    18     9    10    1
