@<TRIPOS>MOLECULE
ZINC37369376_replica-1.pdb
 18 19 0 0 0
SMALL
GASTEIGER

@<TRIPOS>ATOM
      1  C1        -2.5980   30.6500   53.0810 C.3     0  <0>0        0.0325
      2  C2        -2.0530   29.2960   52.7080 C.ar    0  <0>0       -0.0061
      3  C3        -2.3160   28.7640   51.4640 C.ar    0  <0>0       -0.0023
      4  C4        -1.8210   27.5190   51.1060 C.ar    0  <0>0        0.0066
      5  C5        -1.0550   26.7920   51.9920 C.ar    0  <0>0        0.0390
      6  C6        -0.7790   27.3180   53.2550 C.ar    0  <0>0        0.0604
      7  C7        -1.2770   28.5830   53.6160 C.ar    0  <0>0        0.0559
      8  N1        -0.9930   29.0920   54.8630 N.ar    0  <0>0       -0.3565
      9  H1        -1.3420   29.9630   55.1090 H       0  <0>0        0.1656
     10  C8        -0.2390   28.4060   55.7560 C.ar    0  <0>0        0.0360
     11  C9         0.2790   27.1910   55.4860 C.ar    0  <0>0        0.0546
     12  C10        0.0340   26.5780   54.2350 C.ar    0  <0>0        0.1986
     13  O1         0.4940   25.4780   53.9710 O.2     0  <0>0       -0.2865
     14 Br         -0.3830   25.0940   51.5000 Br      0  <0>0       -0.0488
     15  C11        0.0300   29.0260   57.1030 C.3     0  <0>0        0.0335
     16  C12        1.0670   28.1870   57.8530 C.3     0  <0>0        0.0059
     17  C13        0.5650   30.4470   56.9140 C.3     0  <0>0        0.0059
     18  C14       -1.2680   29.0730   57.9120 C.3     0  <0>0        0.0059
@<TRIPOS>BOND
     1     4     3   ar
     2     4     5   ar
     3     3     2   ar
     4    14     5    1
     5     5     6   ar
     6     2     1    1
     7     2     7   ar
     8     6     7   ar
     9     6    12   ar
    10     7     8   ar
    11    13    12    2
    12    12    11   ar
    13     8     9    1
    14     8    10   ar
    15    11    10   ar
    16    10    15    1
    17    17    15    1
    18    15    16    1
    19    15    18    1
