@<TRIPOS>MOLECULE
ZINC49891888_replica-1.pdb
 23 24 0 0 0
SMALL
GASTEIGER

@<TRIPOS>ATOM
      1  C10       -0.8090   31.5260   55.9750 C.3     0  <0>0        0.0550
      2  C9        -0.5940   30.6280   54.7550 C.3     0  <0>0        0.0899
      3  N1        -0.2870   29.2650   55.1990 N.pl3   0  <0>0       -0.3326
      4  H11       -0.0390   29.1020   56.1230 H       0  <0>0        0.1468
      5  C5        -0.3510   28.2040   54.2950 C.ar    0  <0>0        0.0443
      6  C4         0.2690   26.9960   54.5940 C.ar    0  <0>0        0.0140
      7  C3         0.2030   25.9480   53.6960 C.ar    0  <0>0       -0.0033
      8  C2        -0.4800   26.0990   52.5030 C.ar    0  <0>0       -0.0257
      9  C1        -0.5490   24.9520   51.5270 C.3     0  <0>0        0.0307
     10  C7        -1.0930   27.3000   52.2010 C.ar    0  <0>0       -0.0246
     11  C6        -1.0350   28.3510   53.0960 C.ar    0  <0>0        0.0097
     12  C8        -1.8300   27.4620   50.8960 C.3     0  <0>0        0.0307
     13  C11        0.5030   32.2350   56.3210 C.3     0  <0>0        0.1345
     14  C12        0.5790   32.4490   57.8110 C.ar    0  <0>0        0.0067
     15  C17        0.5920   33.7320   58.3260 C.ar    0  <0>0        0.0300
     16  C16        0.6570   33.9280   59.6940 C.ar    0  <0>0        0.1671
     17  C15        0.7190   32.8370   60.5470 C.ar    0  <0>0        0.1674
     18  F1         0.6630   35.1810   60.1990 F       0  <0>0       -0.2018
     19  C14        0.7110   31.5530   60.0280 C.ar    0  <0>0        0.0317
     20  F2         0.7870   33.0260   61.8830 F       0  <0>0       -0.2018
     21  C13        0.6410   31.3610   58.6620 C.ar    0  <0>0        0.0005
     22  O1         1.6050   31.4330   55.8980 O.3     0  <0>0       -0.3800
     23  H19        1.6140   31.2440   54.9500 H       0  <0>0        0.2108
@<TRIPOS>BOND
     1    12    10    1
     2     9     8    1
     3    10     8   ar
     4    10    11   ar
     5     8     7   ar
     6    11     5   ar
     7     7     6   ar
     8     5     6   ar
     9     5     3    1
    10     2     3    1
    11     2     1    1
    12    23    22    1
    13     3     4    1
    14    22    13    1
    15     1    13    1
    16    13    14    1
    17    14    15   ar
    18    14    21   ar
    19    15    16   ar
    20    21    19   ar
    21    16    18    1
    22    16    17   ar
    23    19    17   ar
    24    17    20    1
