@<TRIPOS>MOLECULE
ZINC51039827_replica-1.pdb
 17 18 0 0 0
SMALL
GASTEIGER

@<TRIPOS>ATOM
      1  N1        -0.2360   28.3050   55.1370 N.pl3   0  <0>0       -0.2856
      2  H4         0.4950   28.9330   55.2450 H       0  <0>0        0.1547
      3  C4        -0.6830   27.9670   53.8540 C.ar    0  <0>0        0.0569
      4  C3        -1.4130   28.8840   53.1070 C.ar    0  <0>0        0.0480
      5  C2        -1.8520   28.5480   51.8410 C.ar    0  <0>0        0.0084
      6 Br         -1.8050   30.5900   53.8230 Br      0  <0>0       -0.0477
      7  C1        -1.5650   27.3010   51.3170 C.ar    0  <0>0        0.0073
      8  C6        -0.8390   26.3860   52.0580 C.ar    0  <0>0        0.0358
      9  C5        -0.3970   26.7150   53.3250 C.ar    0  <0>0        0.0219
     10 Br         -0.4490   24.6820   51.3360 Br      0  <0>0       -0.0490
     11  C7        -0.8380   27.7410   56.2500 C.2     0  <0>0        0.2175
     12  N4        -0.3850   26.6000   56.7640 N.2     0  <0>0       -0.3219
     13  C9        -0.9760   26.0880   57.8300 C.1     0  <0>0        0.1711
     14  N3        -2.0150   26.6870   58.3820 N.2     0  <0>0       -0.0704
     15 Cl         -0.3830   24.6040   58.5070 Cl      0  <0>0        0.0132
     16  N2        -2.4860   27.7880   57.9130 N.2     0  <0>0       -0.1318
     17  C8        -1.9390   28.3550   56.8540 C.2     0  <0>0        0.1715
@<TRIPOS>BOND
     1     7     5   ar
     2     7     8   ar
     3    10     8    1
     4     5     4   ar
     5     8     9   ar
     6     4     6    1
     7     4     3   ar
     8     9     3   ar
     9     3     1    1
    10     1     2    1
    11     1    11    1
    12    11    12    2
    13    11    17    1
    14    12    13    2
    15    17    16    2
    16    13    14    2
    17    13    15    1
    18    16    14    1
