@<TRIPOS>MOLECULE
ZINC37177098_replica-1.pdb
 22 23 0 0 0
SMALL
GASTEIGER

@<TRIPOS>ATOM
      1  N1         0.8010   29.7870   54.9400 N.3     0  <0>0       -0.2948
      2  H8         1.5300   29.7900   55.6380 H       0  <0>0        0.1235
      3  C3        -0.1180   28.6600   55.1430 C.3     0  <0>0        0.0731
      4  C2         0.4890   27.3920   54.5380 C.3     0  <0>0        0.0381
      5  C1         0.3860   26.2460   55.5460 C.3     0  <0>0        0.0061
      6  C12       -0.2610   27.0260   53.2830 C.ar    0  <0>0       -0.0212
      7  C17       -1.0060   27.9820   52.6180 C.ar    0  <0>0       -0.0042
      8  C16       -1.6900   27.6460   51.4650 C.ar    0  <0>0       -0.0003
      9  C15       -1.6370   26.3520   50.9810 C.ar    0  <0>0       -0.0000
     10  C14       -0.8960   25.3950   51.6480 C.ar    0  <0>0       -0.0003
     11  C13       -0.2090   25.7310   52.8000 C.ar    0  <0>0       -0.0042
     12  C4         0.0760   31.0640   54.9320 C.3     0  <0>0        0.0769
     13  C5        -1.4280   30.7970   55.0260 C.3     0  <0>0        0.0220
     14  C6         0.5130   31.8980   56.1090 C.ar    0  <0>0       -0.0079
     15  C11       -0.3770   32.1720   57.1300 C.ar    0  <0>0       -0.0013
     16  C10        0.0250   32.9330   58.2130 C.ar    0  <0>0        0.0238
     17  C9         1.3150   33.4260   58.2690 C.ar    0  <0>0        0.1429
     18  C8         2.2050   33.1550   57.2450 C.ar    0  <0>0        0.0238
     19  C7         1.8020   32.3910   56.1660 C.ar    0  <0>0       -0.0013
     20  N2         1.7450   34.2430   59.4250 N.pl3   0  <0>0        0.0577
     21  O1         2.8430   34.0800   59.9060 O.2     0  <0>0       -0.1261
     22  O2         1.0000   35.0740   59.8890 O.2     0  <0>0       -0.1261
@<TRIPOS>BOND
     1     9     8   ar
     2     9    10   ar
     3     8     7   ar
     4    10    11   ar
     5     7     6   ar
     6    11     6   ar
     7     6     4    1
     8     4     3    1
     9     4     5    1
    10    12     1    1
    11    12    13    1
    12    12    14    1
    13     1     3    1
    14     1     2    1
    15    14    19   ar
    16    14    15   ar
    17    19    18   ar
    18    15    16   ar
    19    18    17   ar
    20    16    17   ar
    21    17    20    1
    22    20    22    2
    23    20    21    2
