@<TRIPOS>MOLECULE
ZINC43756785_replica-1.pdb
 31 35 0 0 0
SMALL
GASTEIGER

@<TRIPOS>ATOM
      1  C8         4.4180   34.2290   56.7130 C.3     0  <0>0        0.1511
      2  C9         4.6320   32.7240   56.9900 C.3     0  <0>0        0.0964
      3  C10        6.0820   32.4190   56.6620 C.2     0  <0>0        0.1528
      4  O4         6.6190   31.3400   56.7150 O.2     0  <0>0       -0.2960
      5  C11        6.7320   33.7410   56.2530 C.3     0  <0>0        0.0600
      6  C12        5.5440   34.5680   55.7190 C.3     0  <0>0        0.0343
      7  C13        5.8220   36.0490   55.6370 C.3     0  <0>0        0.0028
      8  C14        6.3440   36.5920   56.9670 C.3     0  <0>0        0.0001
      9  C15        7.6360   35.8430   57.3190 C.3     0  <0>0        0.0004
     10  C16        7.3220   34.3490   57.5300 C.3     0  <0>0        0.0070
     11  C17        8.5850   33.5720   57.9120 C.3     0  <0>0        0.0004
     12  C18        9.1730   34.1490   59.2010 C.3     0  <0>0        0.0000
     13  C19        9.5300   35.6220   58.9790 C.3     0  <0>0        0.0000
     14  C20        8.2240   36.4430   58.5990 C.3     0  <0>0        0.0000
     15  C21        7.1960   36.3370   59.7280 C.3     0  <0>0        0.0000
     16  C22        7.7820   36.9400   61.0080 C.3     0  <0>0        0.0000
     17  C23        9.0490   36.1770   61.3970 C.3     0  <0>0        0.0000
     18  C24       10.1300   36.1980   60.2630 C.3     0  <0>0        0.0000
     19  C25        8.5670   37.9150   58.3600 C.3     0  <0>0        0.0000
     20  C26        5.1610   34.0590   54.3280 C.3     0  <0>0        0.0029
     21  O3         4.5580   34.9900   57.9150 O.3     0  <0>0       -0.2407
     22  S1         3.2790   35.6790   58.3650 S.3     0  <0>0        0.0129
     23  O1         2.4720   35.8360   57.2060 O.3     0  <0>0       -0.0673
     24  O2         3.6720   36.7800   59.1730 O.3     0  <0>0       -0.0673
     25  C5         2.4260   34.5570   59.4230 C.ar    0  <0>0        0.1096
     26  C4         3.1380   33.6740   60.2110 C.ar    0  <0>0        0.0185
     27  C3         2.4700   32.7940   61.0420 C.ar    0  <0>0       -0.0029
     28  C2         1.0880   32.7980   61.0830 C.ar    0  <0>0       -0.0218
     29  C1         0.3590   31.8380   61.9880 C.3     0  <0>0        0.0310
     30  C7         0.3760   33.6770   60.2900 C.ar    0  <0>0       -0.0029
     31  C6         1.0440   34.5600   59.4630 C.ar    0  <0>0        0.0185
@<TRIPOS>BOND
     1    20     6    1
     2     7     6    1
     3     7     8    1
     4     6     5    1
     5     6     1    1
     6     5     3    1
     7     5    10    1
     8     3     4    2
     9     3     2    1
    10     1     2    1
    11     1    21    1
    12     8     9    1
    13    23    22    1
    14     9    10    1
    15     9    14    1
    16    10    11    1
    17    11    12    1
    18    21    22    1
    19    19    14    1
    20    22    24    1
    21    22    25    1
    22    14    13    1
    23    14    15    1
    24    13    12    1
    25    13    18    1
    26    25    31   ar
    27    25    26   ar
    28    31    30   ar
    29    15    16    1
    30    26    27   ar
    31    18    17    1
    32    30    28   ar
    33    16    17    1
    34    27    28   ar
    35    28    29    1
