@<TRIPOS>MOLECULE
ZINC20560531_replica-1.pdb
 20 20 0 0 0
SMALL
GASTEIGER

@<TRIPOS>ATOM
      1  C9        -0.5000   27.9970   53.6120 C.ar    0  <0>0        0.0485
      2  C10       -0.0890   26.7560   53.1400 C.ar    0  <0>0        0.0142
      3  C11       -0.6290   26.2500   51.9740 C.ar    0  <0>0        0.0012
      4  C12       -1.5790   26.9760   51.2780 C.ar    0  <0>0        0.0000
      5  C13       -1.9900   28.2110   51.7450 C.ar    0  <0>0        0.0051
      6  C14       -1.4530   28.7230   52.9100 C.ar    0  <0>0        0.0845
      7  N1         0.0440   28.5120   54.7920 N.pl3   0  <0>0       -0.3341
      8  H18        0.7920   29.3160   54.7470 H       0  <0>0        0.1468
      9  C6        -0.3830   27.9790   56.0880 C.3     0  <0>0        0.0690
     10  C5        -0.5410   29.1290   57.0850 C.3     0  <0>0        0.0195
     11  C3        -1.8390   28.9460   57.8730 C.3     0  <0>0        0.0016
     12  C4        -2.7940   28.0500   57.0820 C.3     0  <0>0        0.0001
     13  C2        -1.5280   28.2940   59.2230 C.3     0  <0>0        0.0001
     14  C1        -2.3520   27.0150   59.3730 C.3     0  <0>0        0.0000
     15  C7         0.6680   26.9950   56.6070 C.3     0  <0>0        0.0195
     16  C8         0.0260   25.6200   56.8050 C.3     0  <0>0        0.0017
     17  C15       -1.9010   30.0690   53.4190 C.3     0  <0>0        0.4197
     18  F1        -0.7820   30.8460   53.7320 F       0  <0>0       -0.1658
     19  F2        -2.6550   30.7130   52.4300 F       0  <0>0       -0.1658
     20  F3        -2.6860   29.8970   54.5640 F       0  <0>0       -0.1658
@<TRIPOS>BOND
     1     4     5   ar
     2     4     3   ar
     3     5     6   ar
     4     3     2   ar
     5    19    17    1
     6     6    17    1
     7     6     1   ar
     8     2     1   ar
     9    17    18    1
    10    17    20    1
    11     1     7    1
    12     8     7    1
    13     7     9    1
    14     9    15    1
    15     9    10    1
    16    15    16    1
    17    12    11    1
    18    10    11    1
    19    11    13    1
    20    13    14    1
