@<TRIPOS>MOLECULE
ZINC36977618_replica-1.pdb
 19 20 0 0 0
SMALL
GASTEIGER

@<TRIPOS>ATOM
      1  C7        11.0670   35.0510   61.7020 C.ar    0  <0>0        0.0447
      2  C8        10.6760   36.3690   61.9010 C.ar    0  <0>0        0.0158
      3  C9         9.9670   37.0330   60.9200 C.ar    0  <0>0        0.0204
      4  C10        9.6440   36.3850   59.7360 C.ar    0  <0>0        0.0829
      5  C11       10.0360   35.0670   59.5380 C.ar    0  <0>0        0.0204
      6  C12       10.7500   34.4040   60.5150 C.ar    0  <0>0        0.0158
      7  N1        11.7850   34.3780   62.6950 N.pl3   0  <0>0       -0.3340
      8  H14       11.6000   34.5550   63.6310 H       0  <0>0        0.1468
      9  C5        12.8160   33.4060   62.3230 C.3     0  <0>0        0.0690
     10  C6        14.1350   34.1370   62.0590 C.3     0  <0>0        0.0212
     11  C3        13.0080   32.4030   63.4620 C.3     0  <0>0        0.0179
     12  C4        14.4900   32.3340   63.8360 C.3     0  <0>0        0.0017
     13  C2        12.5310   31.0220   63.0110 C.3     0  <0>0        0.0016
     14  C1        12.6350   30.0400   64.1810 C.3     0  <0>0        0.0001
     15  N2         8.9230   37.0600   58.7400 N.ar    0  <0>0       -0.2281
     16  N3         8.5630   36.5430   57.4900 N.ar    0  <0>0       -0.1635
     17  C15        7.8970   37.4640   56.8410 C.ar    0  <0>0        0.1221
     18  C14        7.8180   38.6010   57.6530 C.ar    0  <0>0        0.0431
     19  C13        8.4570   38.3270   58.8150 C.ar    0  <0>0        0.1020
@<TRIPOS>BOND
     1    17    16   ar
     2    17    18   ar
     3    16    15   ar
     4    18    19   ar
     5    15    19   ar
     6    15     4    1
     7     5     4   ar
     8     5     6   ar
     9     4     3   ar
    10     6     1   ar
    11     3     2   ar
    12     1     2   ar
    13     1     7    1
    14    10     9    1
    15     9     7    1
    16     9    11    1
    17     7     8    1
    18    13    11    1
    19    13    14    1
    20    11    12    1
