@<TRIPOS>MOLECULE
ZINC10505075_replica-1.pdb
 28 29 0 0 0
SMALL
GASTEIGER

@<TRIPOS>ATOM
      1  C12        0.5860   32.7020   56.3760 C.2     0  <0>0        0.2825
      2  O2         0.2700   33.6100   57.1140 O.2     0  <0>0       -0.2695
      3  N1         1.8000   32.7010   55.7890 N.am    0  <0>0       -0.2306
      4  H16        2.0520   31.9730   55.2000 H       0  <0>0        0.1729
      5  C11       -0.3780   31.5740   56.1150 C.3     0  <0>0        0.2909
      6  O1         0.3520   30.3640   55.8990 O.3     0  <0>0       -0.4656
      7  C8        -0.0920   29.5430   54.9110 C.ar    0  <0>0        0.1393
      8  C7        -1.1740   29.9190   54.1300 C.ar    0  <0>0        0.0366
      9  C6        -1.6230   29.0840   53.1260 C.ar    0  <0>0       -0.0012
     10  C5        -0.9950   27.8750   52.8980 C.ar    0  <0>0       -0.0223
     11  C10        0.0860   27.4960   53.6750 C.ar    0  <0>0       -0.0012
     12  C9         0.5420   28.3310   54.6760 C.ar    0  <0>0        0.0366
     13  C3        -1.4860   26.9650   51.8020 C.3     0  <0>0        0.0223
     14  C4        -1.9350   27.8050   50.6040 C.3     0  <0>0        0.0047
     15  C2        -0.3560   26.0280   51.3710 C.3     0  <0>0        0.0044
     16  C1        -0.6450   24.6130   51.8780 C.3     0  <0>0        0.0003
     17  N2         2.6960   33.7490   56.0330 N.am    0  <0>0       -0.2302
     18  C13        3.9080   33.4900   56.5630 C.2     0  <0>0        0.2614
     19  O3         4.2230   32.3470   56.8290 O.2     0  <0>0       -0.2686
     20  H17        2.4440   34.6620   55.8210 H       0  <0>0        0.1731
     21  C14        4.8540   34.5970   56.8190 C.ar    0  <0>0        0.0565
     22  C19        4.8490   35.2500   58.0530 C.ar    0  <0>0        0.0160
     23  C18        5.7410   36.2790   58.2880 C.ar    0  <0>0        0.0587
     24  C17        6.6280   36.6700   57.3010 C.ar    0  <0>0        0.0228
     25 Cl          5.7420   37.0890   59.8240 Cl      0  <0>0       -0.0822
     26  C16        6.6370   36.0250   56.0750 C.ar    0  <0>0        0.0587
     27  C15        5.7560   34.9910   55.8300 C.ar    0  <0>0        0.0160
     28 Cl          7.7590   36.5170   54.8450 Cl      0  <0>0       -0.0822
@<TRIPOS>BOND
     1    14    13    1
     2    15    13    1
     3    15    16    1
     4    13    10    1
     5    10     9   ar
     6    10    11   ar
     7     9     8   ar
     8    11    12   ar
     9     8     7   ar
    10    12     7   ar
    11    28    26    1
    12     7     6    1
    13     4     3    1
    14     3    17    1
    15     3     1   am
    16    20    17    1
    17    27    26   ar
    18    27    21   ar
    19     6     5    1
    20    17    18   am
    21    26    24   ar
    22     5     1    1
    23     1     2    2
    24    18    21    1
    25    18    19    2
    26    21    22   ar
    27    24    23   ar
    28    22    23   ar
    29    23    25    1
