@<TRIPOS>MOLECULE
ZINC04838456_replica-1.pdb
 28 30 0 0 0
SMALL
GASTEIGER

@<TRIPOS>ATOM
      1  C8         6.8940   35.1410   56.3390 C.ar    0  <0>0        0.1865
      2  N2         6.5390   34.0520   55.6860 N.ar    0  <0>0       -0.1249
      3  N3         5.2250   33.6440   55.6970 N.ar    0  <0>0       -0.1331
      4  C9         4.3230   34.3520   56.3500 C.ar    0  <0>0        0.1611
      5  S1         5.3270   35.6690   57.0170 S.2     0  <0>0       -0.0242
      6  S2         2.5930   34.0700   56.5220 S.3     0  <0>0       -0.0768
      7  C10        2.4630   32.2780   56.7690 C.3     0  <0>0        0.1489
      8  C11        1.0660   31.8230   56.4330 C.2     0  <0>0        0.2341
      9  O1         0.2590   31.6400   57.3190 O.2     0  <0>0       -0.2741
     10  N4         0.7140   31.6210   55.1480 N.am    0  <0>0       -0.2997
     11  H11        1.3600   31.7690   54.4390 H       0  <0>0        0.1498
     12  C12       -0.6450   31.1800   54.8220 C.3     0  <0>0        0.1163
     13  C13       -0.5920   29.8030   54.2090 C.ar    0  <0>0       -0.0025
     14  C18        0.3530   28.8910   54.6410 C.ar    0  <0>0       -0.0018
     15  C17        0.4020   27.6290   54.0800 C.ar    0  <0>0        0.0111
     16  C16       -0.4940   27.2790   53.0860 C.ar    0  <0>0        0.0577
     17  C15       -1.4390   28.1920   52.6540 C.ar    0  <0>0        0.0111
     18 Cl         -0.4320   25.6940   52.3800 Cl      0  <0>0       -0.0822
     19  C14       -1.4910   29.4520   53.2200 C.ar    0  <0>0       -0.0018
     20  N1         8.1490   35.7240   56.4640 N.pl3   0  <0>0       -0.2913
     21  H8         8.7090   35.8430   55.6810 H       0  <0>0        0.1541
     22  C6         8.6060   36.1370   57.7190 C.ar    0  <0>0        0.0494
     23  C5         8.2910   37.4040   58.1920 C.ar    0  <0>0        0.0146
     24  C4         8.7440   37.8090   59.4330 C.ar    0  <0>0        0.0009
     25  C3         9.5110   36.9550   60.2030 C.ar    0  <0>0       -0.0042
     26  C2         9.8270   35.6920   59.7340 C.ar    0  <0>0       -0.0206
     27  C1        10.6640   34.7640   60.5770 C.3     0  <0>0        0.0311
     28  C7         9.3730   35.2790   58.4970 C.ar    0  <0>0        0.0104
@<TRIPOS>BOND
     1    18    16    1
     2    17    16   ar
     3    17    19   ar
     4    16    15   ar
     5    19    13   ar
     6    15    14   ar
     7    13    14   ar
     8    13    12    1
     9    11    10    1
    10    12    10    1
    11    10     8   am
    12    21    20    1
    13     2     3   ar
    14     2     1   ar
    15     3     4   ar
    16     1    20    1
    17     1     5   ar
    18     4     6    1
    19     4     5   ar
    20     8     7    1
    21     8     9    2
    22    20    22    1
    23     6     7    1
    24    22    23   ar
    25    22    28   ar
    26    23    24   ar
    27    28    26   ar
    28    24    25   ar
    29    26    25   ar
    30    26    27    1
