@<TRIPOS>MOLECULE
ZINC54753497_replica-1.pdb
 25 28 0 0 0
SMALL
GASTEIGER

@<TRIPOS>ATOM
      1  C10        9.1430   34.6870   59.9600 C.2     0  <0>0        0.1859
      2  N1         8.2120   35.6800   60.1020 N.am    0  <0>0       -0.2589
      3  H1         8.2650   36.2760   60.8650 H       0  <0>0        0.1573
      4  C11        7.2260   35.8470   59.2000 C.2     0  <0>0        0.2385
      5  O2         6.4040   36.7350   59.3380 O.2     0  <0>0       -0.2739
      6  C12        7.1590   34.9600   58.0750 C.3     0  <0>0        0.1538
      7  C13        6.1690   34.9650   56.9860 C.2     0  <0>0       -0.0250
      8  C14        6.3220   34.0290   56.0350 C.2     0  <0>0        0.0132
      9  S1         7.7550   33.0940   56.5250 S.3     0  <0>0       -0.0631
     10  C15        8.1520   33.9740   58.0110 C.2     0  <0>0        0.1518
     11  N2         9.1040   33.8660   58.9310 N.2     0  <0>0       -0.3839
     12  C16        5.5140   33.7630   54.7940 C.3     0  <0>0        0.0897
     13  S2         3.9290   34.6450   54.9410 S.3     0  <0>0       -0.1346
     14  C17        4.4600   36.2430   55.6350 C.3     0  <0>0        0.0623
     15  C18        5.0540   36.0030   57.0150 C.3     0  <0>0        0.0348
     16  C7        10.2090   34.5400   60.9690 C.ar    0  <0>0        0.0443
     17  C6        10.4960   33.2820   61.5060 C.ar    0  <0>0        0.0070
     18  C5        11.4920   33.1490   62.4480 C.ar    0  <0>0        0.0370
     19  C4        12.2110   34.2620   62.8660 C.ar    0  <0>0        0.1384
     20  C9        11.9240   35.5160   62.3380 C.ar    0  <0>0        0.0370
     21  C8        10.9330   35.6570   61.3930 C.ar    0  <0>0        0.0070
     22  O1        13.1920   34.1270   63.7940 O.3     0  <0>0       -0.4792
     23  C2        14.3640   33.4100   63.3990 C.3     0  <0>0        0.1661
     24  C1        15.5830   33.9970   64.1140 C.3     0  <0>0        0.0472
     25  C3        14.2120   31.9360   63.7760 C.3     0  <0>0        0.0472
@<TRIPOS>BOND
     1    12    13    1
     2    12     8    1
     3    13    14    1
     4    14    15    1
     5     8     9    1
     6     8     7    2
     7     9    10    1
     8     7    15    1
     9     7     6    1
    10    10     6    1
    11    10    11    2
    12     6     4    1
    13    11     1    2
    14     4     5    2
    15     4     2   am
    16     1     2    1
    17     1    16    1
    18     2     3    1
    19    16    21   ar
    20    16    17   ar
    21    21    20   ar
    22    17    18   ar
    23    20    19   ar
    24    18    19   ar
    25    19    22    1
    26    23    25    1
    27    23    22    1
    28    23    24    1
