@<TRIPOS>MOLECULE
ZINC23607906_replica-1.pdb
 21 23 0 0 0
SMALL
GASTEIGER

@<TRIPOS>ATOM
      1  N3         0.3290   29.5010   54.5800 N.am    0  <0>0       -0.2509
      2  C7        -0.8420   28.8790   54.3360 C.2     0  <0>0        0.2520
      3  O1        -1.8010   29.0840   55.0540 O.2     0  <0>0       -0.2697
      4  H8         1.0940   29.3380   54.0070 H       0  <0>0        0.1580
      5  C6         0.4390   30.3780   55.6530 C.2     0  <0>0        0.2128
      6  S1         0.4560   30.0190   57.3000 S.3     0  <0>0       -0.0595
      7  C5         0.6240   31.6780   57.8940 C.3     0  <0>0        0.1194
      8  C4         0.6540   32.4020   56.7430 C.2     0  <0>0        0.1017
      9  C14        0.7170   32.2010   59.2860 C.3     0  <0>0        0.0903
     10  C3         0.7890   33.9170   56.8110 C.3     0  <0>0        0.0727
     11  N2         0.5560   31.6870   55.6290 N.2     0  <0>0       -0.3884
     12  C2         0.4290   34.3640   58.2320 C.3     0  <0>0        0.0793
     13  N1         1.1970   33.5950   59.2200 N.3     0  <0>0       -0.2700
     14  C1         1.1430   34.2340   60.5420 C.3     0  <0>0        0.0897
     15  C8        -0.9580   27.9470   53.1960 C.ar    0  <0>0        0.0591
     16  C13       -0.4130   26.6650   53.2790 C.ar    0  <0>0        0.0344
     17  C12       -0.5300   25.7970   52.2120 C.ar    0  <0>0        0.0059
     18  I1         0.5740   26.0550   55.0240 I       0  <0>0       -0.0424
     19  C11       -1.1760   26.2000   51.0570 C.ar    0  <0>0        0.0004
     20  C10       -1.7140   27.4720   50.9650 C.ar    0  <0>0        0.0002
     21  C9        -1.6090   28.3470   52.0270 C.ar    0  <0>0        0.0049
@<TRIPOS>BOND
     1    20    19   ar
     2    20    21   ar
     3    19    17   ar
     4    21    15   ar
     5    17    16   ar
     6    15    16   ar
     7    15     2    1
     8    16    18    1
     9     4     1    1
    10     2     1   am
    11     2     3    2
    12     1     5    1
    13    11     5    2
    14    11     8    2
    15     5     6    1
    16     8    10    1
    17     8     7    1
    18    10    12    1
    19     6     7    1
    20     7     9    1
    21    12    13    1
    22    13     9    1
    23    13    14    1
