@<TRIPOS>MOLECULE
ZINC14943992_replica-1.pdb
 30 33 0 0 0
SMALL
GASTEIGER

@<TRIPOS>ATOM
      1  C7         7.3410   33.5370   59.8450 C.3     0  <0>0        0.2143
      2  C8         6.2070   34.0480   60.6950 C.2     0  <0>0        0.2549
      3  O2         5.5670   33.2710   61.3720 O.2     0  <0>0       -0.2721
      4  N2         5.8980   35.3560   60.7090 N.am    0  <0>0       -0.2821
      5  C9         6.5400   36.2500   59.8460 C.ar    0  <0>0        0.0476
      6  C10        6.4380   37.6180   60.0650 C.ar    0  <0>0        0.0153
      7  C11        7.0800   38.5010   59.2200 C.ar    0  <0>0        0.0126
      8  C12        7.8280   38.0240   58.1560 C.ar    0  <0>0        0.0575
      9  C13        7.9280   36.6620   57.9340 C.ar    0  <0>0        0.0096
     10  C14        7.2810   35.7750   58.7730 C.ar    0  <0>0        0.0134
     11  C15        7.3740   34.2930   58.5170 C.3     0  <0>0        0.1938
     12 Cl          8.6400   39.1360   57.1000 Cl      0  <0>0       -0.0823
     13  H8         5.2230   35.6840   61.3240 H       0  <0>0        0.1549
     14  C16        6.2380   33.8680   57.6830 C.1     0  <0>0       -0.0775
     15  C17        5.3310   33.5310   57.0180 C.1     0  <0>0       -0.0914
     16  C18        4.1950   33.1060   56.1840 C.3     0  <0>0        0.0642
     17  C20        2.8590   33.8230   56.3920 C.3     0  <0>0        0.0140
     18  C19        3.6850   34.0920   55.1310 C.3     0  <0>0        0.0140
     19  C21        8.6840   33.9840   57.7880 C.3     0  <0>0        0.4133
     20  F1         8.9460   32.6120   57.8620 F       0  <0>0       -0.1685
     21  F2         8.5710   34.3660   56.4460 F       0  <0>0       -0.1685
     22  F3         9.7290   34.6920   58.3880 F       0  <0>0       -0.1685
     23  O1         8.5770   33.7330   60.5350 O.3     0  <0>0       -0.3407
     24  C6         9.1090   32.5440   61.1220 C.3     0  <0>0        0.1707
     25  C3        10.4350   32.8540   61.7680 C.ar    0  <0>0        0.0265
     26  C2        11.1060   34.0290   61.4670 C.ar    0  <0>0        0.0013
     27  C1        12.3250   34.2700   62.0820 C.ar    0  <0>0        0.0204
     28  C5        12.8240   33.3410   62.9750 C.ar    0  <0>0        0.0989
     29  N1        12.1560   32.2350   63.2410 N.ar    0  <0>0       -0.2426
     30  C4        10.9960   31.9710   62.6720 C.ar    0  <0>0        0.0970
@<TRIPOS>BOND
     1    18    16    1
     2    18    17    1
     3    16    17    1
     4    16    15    1
     5    21    19    1
     6    15    14    3
     7    12     8    1
     8    14    11    1
     9    19    20    1
    10    19    22    1
    11    19    11    1
    12     9     8   ar
    13     9    10   ar
    14     8     7   ar
    15    11    10    1
    16    11     1    1
    17    10     5   ar
    18     7     6   ar
    19     1    23    1
    20     1     2    1
    21     5     6   ar
    22     5     4    1
    23    23    24    1
    24     2     4   am
    25     2     3    2
    26     4    13    1
    27    24    25    1
    28    26    25   ar
    29    26    27   ar
    30    25    30   ar
    31    27    28   ar
    32    30    29   ar
    33    28    29   ar
