@<TRIPOS>MOLECULE
ZINC43867209_replica-1.pdb
 31 35 0 0 0
SMALL
GASTEIGER

@<TRIPOS>ATOM
      1  C4         9.3230   35.4240   59.6800 C.3     0  <0>0        0.0004
      2  C5         9.2940   34.2190   59.1120 C.3     0  <0>0        0.0004
      3  C6         7.9550   33.9830   58.3640 C.3     0  <0>0        0.0073
      4  C7         7.9700   32.5870   57.7900 C.3     0  <0>0        0.0004
      5  C8         6.5930   32.0220   57.4960 C.3     0  <0>0        0.0005
      6  C9         5.5760   32.2070   58.6170 C.3     0  <0>0        0.0100
      7  C10        5.5410   33.6470   59.1050 C.3     0  <0>0        0.0005
      8  C11        6.9190   34.1580   59.4560 C.3     0  <0>0        0.0004
      9  C12        6.9200   35.5580   60.0680 C.3     0  <0>0        0.0005
     10  C13        8.1280   36.3380   59.4560 C.3     0  <0>0        0.0077
     11  C14        7.7450   36.3960   58.0040 C.3     0  <0>0        0.0691
     12  C15        8.0500   35.0720   57.3180 C.3     0  <0>0        0.0691
     13  C16        7.3040   34.9940   56.0340 C.2     0  <0>0        0.1732
     14  O1         6.8660   33.9530   55.5820 O.2     0  <0>0       -0.2913
     15  C17        7.1410   36.2570   55.2650 C.2     0  <0>0        0.0404
     16  C18        7.5450   37.4480   55.7450 C.2     0  <0>0        0.0404
     17  C19        8.0730   37.5450   57.1350 C.2     0  <0>0        0.1732
     18  O2         8.7230   38.4920   57.5240 O.2     0  <0>0       -0.2913
     19  C20        4.6040   33.8120   60.3080 C.3     0  <0>0        0.0000
     20  C21        4.9580   32.8030   61.3980 C.3     0  <0>0        0.0005
     21  C22        4.7030   31.4020   60.8480 C.3     0  <0>0        0.0106
     22  C23        5.6400   31.1230   59.6680 C.3     0  <0>0        0.0896
     23  C24        7.0480   30.8820   60.2050 C.3     0  <0>0        0.0111
     24  C27        4.9210   34.5010   57.9760 C.3     0  <0>0        0.0000
     25  C25        5.1620   29.8170   59.0430 C.2     0  <0>0        0.3160
     26  O3         4.0220   29.7140   58.6550 O.2     0  <0>0       -0.2501
     27  O4         6.0090   28.7820   58.9230 O.3     0  <0>0       -0.4444
     28  C26        5.6070   27.5440   59.5120 C.3     0  <0>0        0.2556
     29  C2        10.5110   35.8780   60.4920 C.3     0  <0>0        0.0000
     30  C1        10.0340   36.7670   61.6430 C.3     0  <0>0        0.0000
     31  C3        11.2390   34.6580   61.0590 C.3     0  <0>0        0.0000
@<TRIPOS>BOND
     1    15    16    2
     2    15    13    1
     3    14    13    2
     4    16    17    1
     5    13    12    1
     6    17    18    2
     7    17    11    1
     8    12    11    1
     9    12     3    1
    10     5     4    1
    11     5     6    1
    12     4     3    1
    13    24     7    1
    14    11    10    1
    15     3     2    1
    16     3     8    1
    17     6     7    1
    18     6    22    1
    19    26    25    2
    20    27    25    1
    21    27    28    1
    22    25    22    1
    23     7     8    1
    24     7    19    1
    25     2     1    1
    26    10     1    1
    27    10     9    1
    28     8     9    1
    29    22    23    1
    30    22    21    1
    31     1    29    1
    32    19    20    1
    33    29    31    1
    34    29    30    1
    35    21    20    1
