@<TRIPOS>MOLECULE
ZINC52250301_replica-1.pdb
 21 21 0 0 0
SMALL
GASTEIGER

@<TRIPOS>ATOM
      1  C7        -0.3500   28.2950   55.2920 C.3     0  <0>0        0.1169
      2  C3        -0.8470   29.7370   55.3930 C.3     0  <0>0        0.1274
      3  C2        -2.0840   29.7880   56.2940 C.3     0  <0>0        0.0138
      4  C1        -3.0830   30.8000   55.7300 C.3     0  <0>0        0.0007
      5  C4         0.2380   30.6030   55.9820 C.2     0  <0>0        0.3191
      6  O1         0.7850   31.4350   55.2970 O.2     0  <0>0       -0.2500
      7  O2         0.5950   30.4500   57.2670 O.3     0  <0>0       -0.4484
      8  C5         1.3940   31.4840   57.8450 C.3     0  <0>0        0.2086
      9  C6         0.5130   32.3840   58.7150 C.3     0  <0>0        0.0513
     10  C8        -1.0650   27.4340   56.3350 C.3     0  <0>0        0.0317
     11  C9        -0.0370   26.8430   57.3020 C.3     0  <0>0        0.0027
     12  C10       -0.3360   27.3290   58.7220 C.3     0  <0>0        0.0001
     13  C11       -0.1140   25.3160   57.2590 C.3     0  <0>0        0.0001
     14  C12       -0.6400   27.7590   53.9140 C.ar    0  <0>0        0.0022
     15  C17       -0.1890   26.5040   53.5500 C.ar    0  <0>0       -0.0020
     16  C16       -0.4590   26.0120   52.2870 C.ar    0  <0>0       -0.0002
     17  C15       -1.1750   26.7770   51.3850 C.ar    0  <0>0       -0.0000
     18  C14       -1.6220   28.0340   51.7470 C.ar    0  <0>0       -0.0002
     19  C13       -1.3540   28.5250   53.0110 C.ar    0  <0>0       -0.0020
     20  O3         1.0590   28.2570   55.5300 O.3     0  <0>0       -0.3821
     21  H26        1.3320   27.5850   56.1690 H       0  <0>0        0.2107
@<TRIPOS>BOND
     1    17    18   ar
     2    17    16   ar
     3    18    19   ar
     4    16    15   ar
     5    19    14   ar
     6    15    14   ar
     7    14     1    1
     8     1     2    1
     9     1    20    1
    10     1    10    1
    11     6     5    2
    12     2     5    1
    13     2     3    1
    14    20    21    1
    15     4     3    1
    16     5     7    1
    17    10    11    1
    18    13    11    1
    19     7     8    1
    20    11    12    1
    21     8     9    1
