@<TRIPOS>MOLECULE
ZINC27532467_replica-1.pdb
 18 19 0 0 0
SMALL
GASTEIGER

@<TRIPOS>ATOM
      1  C8        -2.4670   30.1050   54.4630 C.3     0  <0>0        0.2174
      2  O1        -1.3190   29.9160   53.6340 O.3     0  <0>0       -0.4745
      3  C5        -1.1340   28.6750   53.1110 C.ar    0  <0>0        0.1386
      4  C4        -0.3960   27.7300   53.8100 C.ar    0  <0>0        0.0366
      5  C3        -0.2090   26.4690   53.2770 C.ar    0  <0>0       -0.0011
      6  C2        -0.7550   26.1490   52.0480 C.ar    0  <0>0       -0.0217
      7  C1        -0.5490   24.7730   51.4680 C.3     0  <0>0        0.0310
      8  C7        -1.4900   27.0890   51.3500 C.ar    0  <0>0       -0.0011
      9  C6        -1.6800   28.3510   51.8780 C.ar    0  <0>0        0.0366
     10  C9        -2.0440   30.7680   55.7760 C.3     0  <0>0        0.1114
     11  S1        -0.3980   31.5030   55.5800 S.3     0  <0>0       -0.0827
     12  C10       -0.0060   32.1050   57.1880 C.ar    0  <0>0        0.1600
     13  S2         0.5950   31.2150   58.6160 S.2     0  <0>0       -0.0330
     14  C11        0.6970   32.6040   59.7340 C.ar    0  <0>0        0.1599
     15  N2         0.2830   33.5900   58.9630 N.ar    0  <0>0       -0.1339
     16  N1        -0.0710   33.3360   57.6580 N.ar    0  <0>0       -0.1339
     17  S3         1.2110   32.6440   61.4200 S.3     0  <0>0       -0.0857
     18  C12       -0.1580   33.4710   62.2760 C.3     0  <0>0        0.0762
@<TRIPOS>BOND
     1     8     9   ar
     2     8     6   ar
     3     7     6    1
     4     9     3   ar
     5     6     5   ar
     6     3     2    1
     7     3     4   ar
     8     5     4   ar
     9     2     1    1
    10     1    10    1
    11    11    10    1
    12    11    12    1
    13    12    16   ar
    14    12    13   ar
    15    16    15   ar
    16    13    14   ar
    17    15    14   ar
    18    14    17    1
    19    17    18    1
