@<TRIPOS>MOLECULE
ZINC55502672_replica-1.pdb
 24 27 0 0 0
SMALL
GASTEIGER

@<TRIPOS>ATOM
      1  C9         0.2010   29.1040   55.6720 C.2     0  <0>0        0.1859
      2  N1         0.6780   30.3320   55.3000 N.am    0  <0>0       -0.2589
      3  H1         0.8480   30.5120   54.3620 H       0  <0>0        0.1573
      4  C10        0.9150   31.2940   56.2110 C.2     0  <0>0        0.2386
      5  O2         1.3390   32.3830   55.8650 O.2     0  <0>0       -0.2739
      6  C11        0.6600   31.0180   57.5980 C.3     0  <0>0        0.1545
      7  C12        0.8500   31.8960   58.7010 C.2     0  <0>0       -0.0170
      8  C13        0.5270   31.4090   59.9310 C.2     0  <0>0        0.0496
      9  S1        -0.0250   29.7520   59.6480 S.3     0  <0>0       -0.0533
     10  C14        0.1700   29.7310   57.8820 C.2     0  <0>0        0.1525
     11  N2        -0.0460   28.8310   56.9370 N.2     0  <0>0       -0.3839
     12  S2         0.6380   32.2660   61.4600 S.3     0  <0>0       -0.1077
     13  C15        1.5700   33.7570   60.9750 C.3     0  <0>0        0.0630
     14  C16        0.9910   34.2340   59.6360 C.3     0  <0>0        0.0164
     15  C17        1.3980   33.3020   58.5060 C.3     0  <0>0        0.0248
     16  C6        -0.0460   28.0750   54.6430 C.ar    0  <0>0        0.0441
     17  C5        -0.7900   28.3910   53.5020 C.ar    0  <0>0        0.0040
     18  C4        -1.0190   27.4390   52.5490 C.ar    0  <0>0        0.0030
     19  C3        -0.5080   26.1460   52.7160 C.ar    0  <0>0        0.0347
     20  C8         0.2320   25.8290   53.8620 C.ar    0  <0>0        0.0030
     21  C7         0.4660   26.7840   54.8100 C.ar    0  <0>0        0.0040
     22  C2        -0.7530   25.1210   51.6910 C.2     0  <0>0        0.1735
     23  C1        -0.3070   23.7000   51.9220 C.3     0  <0>0        0.0773
     24  O1        -1.3160   25.4190   50.6590 O.2     0  <0>0       -0.2913
@<TRIPOS>BOND
     1    24    22    2
     2    22    23    1
     3    22    19    1
     4    18    19   ar
     5    18    17   ar
     6    19    20   ar
     7    17    16   ar
     8    20    21   ar
     9     3     2    1
    10    16    21   ar
    11    16     1    1
    12     2     1    1
    13     2     4   am
    14     1    11    2
    15     5     4    2
    16     4     6    1
    17    11    10    2
    18     6    10    1
    19     6     7    1
    20    10     9    1
    21    15     7    1
    22    15    14    1
    23     7     8    2
    24    14    13    1
    25     9     8    1
    26     8    12    1
    27    13    12    1
