@<TRIPOS>MOLECULE
ZINC12293417_replica-1.pdb
 20 21 0 0 0
SMALL
GASTEIGER

@<TRIPOS>ATOM
      1  C4        11.5530   35.0630   61.7710 C.ar    0  <0>0        0.1219
      2  C5        11.0080   36.3010   62.0570 C.ar    0  <0>0        0.0196
      3  C6        10.0480   36.8430   61.2230 C.ar    0  <0>0       -0.0029
      4  C7         9.6410   36.1530   60.0970 C.ar    0  <0>0       -0.0224
      5  C8        10.1880   34.9160   59.8100 C.ar    0  <0>0       -0.0029
      6  C9        11.1430   34.3710   60.6470 C.ar    0  <0>0        0.0196
      7  S1        12.7720   34.3680   62.8370 S.O2    0  <0>0        0.0602
      8  O1        13.9850   34.3320   62.0990 O.2     0  <0>0       -0.1530
      9  O2        12.6560   35.0460   64.0810 O.2     0  <0>0       -0.1530
     10  N1        12.3390   32.7940   63.1150 N.3     0  <0>0       -0.1794
     11  H8        11.4070   32.5300   63.0570 H       0  <0>0        0.1488
     12  C3        13.3620   31.8000   63.4480 C.3     0  <0>0        0.0914
     13  C2        12.7780   30.3950   63.2940 C.3     0  <0>0        0.0188
     14  C1        12.4030   29.8450   64.6710 C.3     0  <0>0        0.0015
     15  C10        8.5990   36.7460   59.1840 C.3     0  <0>0        0.0223
     16  C15        8.7190   38.2720   59.1980 C.3     0  <0>0        0.0044
     17  C14        7.6610   38.8740   58.2720 C.3     0  <0>0        0.0003
     18  C13        7.8770   38.3590   56.8480 C.3     0  <0>0        0.0000
     19  C12        7.7570   36.8340   56.8340 C.3     0  <0>0        0.0003
     20  C11        8.8150   36.2310   57.7610 C.3     0  <0>0        0.0044
@<TRIPOS>BOND
     1    19    18    1
     2    19    20    1
     3    18    17    1
     4    20    15    1
     5    17    16    1
     6    15    16    1
     7    15     4    1
     8     5     4   ar
     9     5     6   ar
    10     4     3   ar
    11     6     1   ar
    12     3     2   ar
    13     1     2   ar
    14     1     7    1
    15     8     7    2
    16     7    10    1
    17     7     9    2
    18    11    10    1
    19    10    12    1
    20    13    12    1
    21    13    14    1
