@<TRIPOS>MOLECULE
ZINC67530286_replica-1.pdb
 26 27 0 0 0
SMALL
GASTEIGER

@<TRIPOS>ATOM
      1  C4         5.6850   35.7990   58.1630 C.3     0  <0>0        0.1351
      2  C5         4.7590   35.1240   59.1780 C.3     0  <0>0        0.0331
      3  C6         5.4810   34.9930   60.5210 C.3     0  <0>0        0.0241
      4  C7         6.7250   34.1170   60.3450 C.3     0  <0>0        0.0951
      5  N1         7.5520   34.6800   59.2690 N.am    0  <0>0       -0.2617
      6  C8         6.9330   34.9320   57.9600 C.3     0  <0>0        0.1243
      7  C9         8.8530   34.9600   59.4770 C.2     0  <0>0        0.3042
      8  O2         9.5490   35.3400   58.5560 O.2     0  <0>0       -0.2526
      9  N2         9.3830   34.8210   60.7080 N.am    0  <0>0       -0.2866
     10  H18        8.8490   34.4490   61.4280 H       0  <0>0        0.1512
     11  C10       10.7660   35.2310   60.9610 C.3     0  <0>0        0.0956
     12  C11       10.7740   36.5250   61.7770 C.3     0  <0>0        0.0262
     13  C12       11.4790   34.1480   61.7300 C.ar    0  <0>0       -0.0043
     14  C17       12.7900   34.3330   62.1290 C.ar    0  <0>0        0.0004
     15  C16       13.4430   33.3440   62.8390 C.ar    0  <0>0        0.0368
     16  C15       12.7860   32.1610   63.1420 C.ar    0  <0>0        0.1443
     17  C14       11.4730   31.9750   62.7360 C.ar    0  <0>0        0.0368
     18  C13       10.8230   32.9690   62.0310 C.ar    0  <0>0        0.0004
     19  O3        13.4280   31.1840   63.8360 O.3     0  <0>0       -0.4236
     20  C18       12.6360   30.0890   64.3000 C.3     0  <0>0        0.5087
     21  F1        12.8720   28.9700   63.4950 F       0  <0>0       -0.1550
     22  F2        12.9780   29.7930   65.6240 F       0  <0>0       -0.1550
     23  O1         5.0000   35.9490   56.9180 O.3     0  <0>0       -0.3545
     24  C3         5.0510   34.7910   56.0830 C.3     0  <0>0        0.1421
     25  C2         4.1010   34.9740   54.8980 C.3     0  <0>0        0.0321
     26  C1         4.8400   34.6560   53.5970 C.3     0  <0>0        0.0027
@<TRIPOS>BOND
     1    26    25    1
     2    25    24    1
     3    24    23    1
     4    23     1    1
     5     6     1    1
     6     6     5    1
     7     1     2    1
     8     8     7    2
     9     2     3    1
    10     5     7   am
    11     5     4    1
    12     7     9   am
    13     4     3    1
    14     9    11    1
    15     9    10    1
    16    11    13    1
    17    11    12    1
    18    13    18   ar
    19    13    14   ar
    20    18    17   ar
    21    14    15   ar
    22    17    16   ar
    23    15    16   ar
    24    16    19    1
    25    21    20    1
    26    19    20    1
    27    20    22    1
