@<TRIPOS>MOLECULE
ZINC05228146_replica-1.pdb
 29 32 0 0 0
SMALL
GASTEIGER

@<TRIPOS>ATOM
      1  C3         0.4120   31.8280   57.5830 C.3     0  <0>0        0.1728
      2  C4         1.6830   31.3730   58.2980 C.3     0  <0>0        0.0443
      3  C5         2.2680   32.4940   59.1510 C.3     0  <0>0        0.0074
      4  C6         2.4300   33.7690   58.3120 C.3     0  <0>0        0.0151
      5  C7         3.7950   34.3730   58.5470 C.3     0  <0>0        0.0038
      6  C8         3.8450   35.8880   58.5680 C.3     0  <0>0        0.0005
      7  C9         5.2420   36.3770   59.0010 C.3     0  <0>0        0.0043
      8  C10        6.2700   35.8560   58.0300 C.3     0  <0>0        0.0445
      9  C11        6.1860   34.3220   57.9420 C.3     0  <0>0        0.0047
     10  C12        4.8360   33.7890   57.5720 C.3     0  <0>0        0.0048
     11  C13        4.4100   34.0690   56.1370 C.3     0  <0>0        0.0254
     12  C14        3.0200   33.5300   55.9200 C.2     0  <0>0       -0.0345
     13  C15        2.1540   33.4220   56.8750 C.2     0  <0>0       -0.0455
     14  C16        0.7660   32.8980   56.5450 C.3     0  <0>0        0.0653
     15  C17        7.3850   33.9970   57.0420 C.3     0  <0>0        0.0048
     16  C18        8.4810   34.9570   57.5900 C.3     0  <0>0        0.0529
     17  C19        7.7450   36.0180   58.4500 C.3     0  <0>0        0.1888
     18  C20        8.2130   37.3700   58.1230 C.1     0  <0>0       -0.0397
     19  C21        8.5890   38.4510   57.8600 C.1     0  <0>0       -0.0108
     20  C24        6.1360   36.5620   56.6820 C.3     0  <0>0        0.0045
     21  C25        1.3450   34.7430   58.7770 C.3     0  <0>0        0.0040
     22  O3         7.8990   35.7370   59.8620 O.3     0  <0>0       -0.4433
     23  C22        9.0160   35.0960   60.2380 C.2     0  <0>0        0.3182
     24  O4         8.9970   33.8990   60.4090 O.2     0  <0>0       -0.2501
     25  C23       10.2920   35.8670   60.4510 C.3     0  <0>0        0.1212
     26  O2        -0.2060   30.6920   56.9210 O.3     0  <0>0       -0.4519
     27  C2        -1.1040   30.9600   55.9610 C.2     0  <0>0        0.3174
     28  C1        -0.7350   30.7750   54.5120 C.3     0  <0>0        0.1212
     29  O1        -2.2080   31.3510   56.2590 O.2     0  <0>0       -0.2501
@<TRIPOS>BOND
     1    28    27    1
     2    12    11    1
     3    12    13    2
     4    27    29    2
     5    27    26    1
     6    11    10    1
     7    14    13    1
     8    14     1    1
     9    20     8    1
    10    13     4    1
    11    26     1    1
    12    15    16    1
    13    15     9    1
    14    10     9    1
    15    10     5    1
    16     1     2    1
    17    16    17    1
    18    19    18    3
    19     9     8    1
    20     8    17    1
    21     8     7    1
    22    18    17    1
    23     2     3    1
    24     4     5    1
    25     4    21    1
    26     4     3    1
    27    17    22    1
    28     5     6    1
    29     6     7    1
    30    22    23    1
    31    23    24    2
    32    23    25    1
