@<TRIPOS>MOLECULE
ZINC66189485_replica-1.pdb
 24 25 0 0 0
SMALL
GASTEIGER

@<TRIPOS>ATOM
      1  N1         7.9260   37.7350   58.1810 N.pl3   0  <0>0       -0.3313
      2  H14        7.1960   38.2020   58.6170 H       0  <0>0        0.1469
      3  C8         8.7840   36.9220   58.9320 C.ar    0  <0>0        0.0449
      4  C7         9.2410   37.3530   60.1710 C.ar    0  <0>0        0.0174
      5  C6        10.0870   36.5510   60.9110 C.ar    0  <0>0        0.0382
      6  C5        10.4800   35.3160   60.4180 C.ar    0  <0>0        0.1386
      7  C10       10.0270   34.8870   59.1780 C.ar    0  <0>0        0.0382
      8  C9         9.1770   35.6860   58.4400 C.ar    0  <0>0        0.0174
      9  O1        11.3130   34.5260   61.1480 O.3     0  <0>0       -0.4755
     10  C4        11.9230   35.1150   62.2980 C.3     0  <0>0        0.2053
     11  C2        12.7700   34.0650   63.0190 C.3     0  <0>0        0.0438
     12  C1        12.0530   32.7150   62.9770 C.3     0  <0>0        0.0038
     13  C3        14.1290   33.9430   62.3270 C.3     0  <0>0        0.0038
     14  C11        8.1300   37.8790   56.7380 C.3     0  <0>0        0.1085
     15  C12        6.8470   37.4940   56.0010 C.3     0  <0>0        0.1086
     16  N2         6.3520   36.2140   56.5170 N.pl3   0  <0>0       -0.3295
     17  H19        6.9440   35.4480   56.5600 H       0  <0>0        0.1469
     18  C13        5.0280   36.1000   56.9490 C.ar    0  <0>0        0.0725
     19  C18        4.7500   35.8670   58.2920 C.ar    0  <0>0        0.1531
     20  C17        3.4380   35.7600   58.7150 C.ar    0  <0>0        0.0309
     21  F1         5.7600   35.7520   59.1810 F       0  <0>0       -0.2029
     22  C16        2.4040   35.8710   57.8040 C.ar    0  <0>0        0.0024
     23  C15        2.6780   36.0970   56.4680 C.ar    0  <0>0        0.0014
     24  C14        3.9860   36.2120   56.0380 C.ar    0  <0>0        0.0166
@<TRIPOS>BOND
     1    15    16    1
     2    15    14    1
     3    24    23   ar
     4    24    18   ar
     5    23    22   ar
     6    16    17    1
     7    16    18    1
     8    14     1    1
     9    18    19   ar
    10    22    20   ar
    11     1     2    1
    12     1     3    1
    13    19    20   ar
    14    19    21    1
    15     8     3   ar
    16     8     7   ar
    17     3     4   ar
    18     7     6   ar
    19     4     5   ar
    20     6     5   ar
    21     6     9    1
    22     9    10    1
    23    10    11    1
    24    13    11    1
    25    12    11    1
