@<TRIPOS>MOLECULE
ZINC00131525_replica-1.pdb
 26 28 0 0 0
SMALL
GASTEIGER

@<TRIPOS>ATOM
      1  C3         9.8330   35.8140   60.2330 C.ar    0  <0>0       -0.0045
      2  C4         9.6970   37.1600   60.4030 C.ar    0  <0>0       -0.0028
      3  C5         8.7930   37.8910   59.6400 C.ar    0  <0>0       -0.0002
      4  C6         8.0090   37.2760   58.7090 C.ar    0  <0>0        0.0027
      5  C7         8.1190   35.8930   58.5140 C.ar    0  <0>0        0.0310
      6  C8         9.0420   35.1470   59.2840 C.ar    0  <0>0        0.0785
      7  N1         9.1570   33.8220   59.1060 N.ar    0  <0>0       -0.2439
      8  C9         8.4330   33.1760   58.2290 C.ar    0  <0>0        0.1065
      9  C10        7.4910   33.8340   57.4210 C.ar    0  <0>0        0.1081
     10  C11        7.3210   35.2200   57.5560 C.ar    0  <0>0        0.0575
     11  N2         6.4090   35.9050   56.7830 N.pl3   0  <0>0       -0.3123
     12  H10        6.7040   36.3800   55.9920 H       0  <0>0        0.1522
     13  C12        5.0570   35.9140   57.1420 C.ar    0  <0>0        0.0485
     14  C17        4.6920   35.7990   58.4780 C.ar    0  <0>0        0.0169
     15  C16        3.3570   35.8080   58.8310 C.ar    0  <0>0        0.0309
     16  C15        2.3820   35.9320   57.8550 C.ar    0  <0>0        0.1402
     17  C14        2.7440   36.0460   56.5230 C.ar    0  <0>0        0.0309
     18  F1         1.0770   35.9400   58.2020 F       0  <0>0       -0.2042
     19  C13        4.0780   36.0440   56.1660 C.ar    0  <0>0        0.0169
     20  C18        6.6940   33.0790   56.4430 C.2     0  <0>0        0.3440
     21  O1         6.6420   33.4490   55.2860 O.2     0  <0>0       -0.2448
     22  O2         6.0180   31.9790   56.8300 O.3     0  <0>0       -0.4454
     23  C19        4.9080   32.1740   57.7440 C.3     0  <0>0        0.2089
     24  C20        3.6240   32.4110   56.9460 C.3     0  <0>0        0.0513
     25  C2        10.8230   35.0430   61.0660 C.3     0  <0>0        0.0279
     26  C1        11.3920   35.9550   62.1560 C.3     0  <0>0        0.0051
@<TRIPOS>BOND
     1    21    20    2
     2    12    11    1
     3    19    17   ar
     4    19    13   ar
     5    20    22    1
     6    20     9    1
     7    17    16   ar
     8    11    13    1
     9    11    10    1
    10    22    23    1
    11    24    23    1
    12    13    14   ar
    13     9    10   ar
    14     9     8   ar
    15    10     5   ar
    16    16    18    1
    17    16    15   ar
    18     8     7   ar
    19    14    15   ar
    20     5     4   ar
    21     5     6   ar
    22     4     3   ar
    23     7     6   ar
    24     6     1   ar
    25     3     2   ar
    26     1     2   ar
    27     1    25    1
    28    25    26    1
