@<TRIPOS>MOLECULE
ZINC06378768_replica-1.pdb
 30 32 0 0 0
SMALL
GASTEIGER

@<TRIPOS>ATOM
      1  C4         1.1430   33.2960   58.4290 C.2     0  <0>0        0.1345
      2  C5         1.0470   33.4930   57.0510 C.2     0  <0>0        0.0883
      3  S1         0.3890   32.0750   56.4450 S.3     0  <0>0       -0.0675
      4  C6         0.1980   31.1370   57.9450 C.2     0  <0>0        0.0841
      5  C7        -0.2950   29.8820   58.0990 C.2     0  <0>0        0.0680
      6  C15        0.6940   32.0230   58.9420 C.2     0  <0>0        0.2107
      7  O3         0.7330   31.7340   60.1270 O.2     0  <0>0       -0.2857
      8  N1        -0.7240   29.1780   57.0100 N.pl3   0  <0>0       -0.3276
      9  H7        -1.6560   29.2180   56.7420 H       0  <0>0        0.1472
     10  C8         0.2220   28.3610   56.2460 C.3     0  <0>0        0.1143
     11  C9        -0.2960   28.1710   54.8440 C.ar    0  <0>0       -0.0026
     12  C14       -1.0850   29.1440   54.2600 C.ar    0  <0>0       -0.0018
     13  C13       -1.5550   28.9720   52.9730 C.ar    0  <0>0        0.0111
     14  C12       -1.2460   27.8200   52.2720 C.ar    0  <0>0        0.0577
     15  C11       -0.4610   26.8440   52.8580 C.ar    0  <0>0        0.0111
     16 Cl         -1.8420   27.6000   50.6560 Cl      0  <0>0       -0.0822
     17  C10        0.0140   27.0190   54.1440 C.ar    0  <0>0       -0.0018
     18  N2         1.4110   34.6080   56.3430 N.pl3   0  <0>0       -0.3073
     19  H14        0.7380   35.2530   56.0730 H       0  <0>0        0.1527
     20  C16        2.7520   34.8170   56.0070 C.ar    0  <0>0        0.0487
     21  C21        3.4690   33.8260   55.3490 C.ar    0  <0>0        0.0146
     22  C20        4.7910   34.0390   55.0130 C.ar    0  <0>0        0.0013
     23  C19        5.4050   35.2340   55.3410 C.ar    0  <0>0        0.0001
     24  C18        4.6960   36.2220   56.0000 C.ar    0  <0>0        0.0013
     25  C17        3.3720   36.0180   56.3330 C.ar    0  <0>0        0.0146
     26  C3         1.6640   34.2990   59.2850 C.2     0  <0>0        0.3461
     27  O2         1.2150   35.4290   59.2430 O.2     0  <0>0       -0.2447
     28  O1         2.6580   34.0010   60.1470 O.3     0  <0>0       -0.4453
     29  C2         3.9550   34.5220   59.8470 C.3     0  <0>0        0.2089
     30  C1         4.6730   33.5780   58.8800 C.3     0  <0>0        0.0513
@<TRIPOS>BOND
     1    16    14    1
     2    14    15   ar
     3    14    13   ar
     4    15    17   ar
     5    13    12   ar
     6    17    11   ar
     7    12    11   ar
     8    11    10    1
     9    22    23   ar
    10    22    21   ar
    11    23    24   ar
    12    21    20   ar
    13    24    25   ar
    14    20    25   ar
    15    20    18    1
    16    19    18    1
    17    10     8    1
    18    18     2    1
    19     3     2    1
    20     3     4    1
    21     9     8    1
    22     8     5    1
    23     2     1    2
    24     4     5    2
    25     4     6    1
    26     1     6    1
    27     1    26    1
    28    30    29    1
    29     6     7    2
    30    27    26    2
    31    26    28    1
    32    29    28    1
