@<TRIPOS>MOLECULE
ZINC50833384_replica-1.pdb
 19 20 0 0 0
SMALL
GASTEIGER

@<TRIPOS>ATOM
      1  C4         5.5210   35.7790   56.4630 C.3     0  <0>0        0.1649
      2  C5         4.9550   35.9490   57.6950 C.2     0  <0>0        0.1124
      3  N2         3.6410   35.9420   57.7370 N.2     0  <0>0       -0.1562
      4  N3         2.9770   35.7800   56.6430 N.pl3   0  <0>0       -0.0825
      5  S1         4.1700   35.6330   55.4750 S.3     0  <0>0        0.0163
      6  C6         5.7890   36.1320   58.9350 C.3     0  <0>0        0.1869
      7  O1         6.7040   35.0420   59.0600 O.3     0  <0>0       -0.3501
      8  C7         7.8710   35.3470   59.8270 C.3     0  <0>0        0.1157
      9  C13        7.7040   36.7260   60.4980 C.3     0  <0>0        0.0296
     10  C12        8.6040   36.9060   61.6270 C.3     0  <0>0        0.0025
     11  C11       10.0880   36.8450   61.2110 C.3     0  <0>0        0.0001
     12  C10       10.4850   35.4010   61.0650 C.3     0  <0>0        0.0001
     13  C9        10.3540   34.8980   59.6150 C.3     0  <0>0        0.0025
     14  C8         9.0720   35.3980   58.9220 C.3     0  <0>0        0.0296
     15  N1         6.8700   35.7450   56.1160 N.3     0  <0>0       -0.2841
     16  H8         7.4460   35.0540   56.4800 H       0  <0>0        0.1244
     17  C3         7.4160   36.7490   55.2010 C.3     0  <0>0        0.0695
     18  C2         7.2290   38.1430   55.8030 C.3     0  <0>0        0.0171
     19  C1         8.2660   38.3660   56.9050 C.3     0  <0>0        0.0015
@<TRIPOS>BOND
     1    17    18    1
     2    17    15    1
     3     5     1    1
     4     5     4    1
     5    18    19    1
     6    15     1    1
     7    15    16    1
     8     1     2    1
     9     4     3    1
    10     2     3    2
    11     2     6    1
    12    14    13    1
    13    14     8    1
    14     6     7    1
    15     7     8    1
    16    13    12    1
    17     8     9    1
    18     9    10    1
    19    12    11    1
    20    11    10    1
