@<TRIPOS>MOLECULE
ZINC15952938_replica-1.pdb
 23 25 0 0 0
SMALL
GASTEIGER

@<TRIPOS>ATOM
      1  C3        10.3250   35.3710   60.8850 C.2     0  <0>0        0.2024
      2  N1         9.9900   36.6060   60.6650 N.2     0  <0>0       -0.3912
      3  H2        10.2790   33.4460   60.2630 H       0  <0>0        0.1570
      4  C4         9.2740   36.9670   59.5710 C.2     0  <0>0        0.1227
      5  C5         8.9140   38.2950   59.3360 C.2     0  <0>0        0.0284
      6  C6         8.1860   38.6160   58.2130 C.2     0  <0>0        0.0020
      7  C7         7.8040   37.6330   57.3080 C.2     0  <0>0       -0.0036
      8  C8         8.1470   36.3150   57.5190 C.2     0  <0>0       -0.0103
      9  C9         8.8840   35.9700   58.6500 C.3     0  <0>0        0.1508
     10  C10        9.2790   34.5810   58.9270 C.2     0  <0>0        0.2381
     11  O1         8.9750   33.6740   58.1730 O.2     0  <0>0       -0.2739
     12  N2         9.9980   34.3500   60.0500 N.am    0  <0>0       -0.2595
     13  C2        11.1210   35.0540   62.1230 C.3     0  <0>0        0.2317
     14  C1        11.6960   36.3480   62.7040 C.3     0  <0>0        0.0566
     15  O2        12.1910   34.1660   61.7880 O.3     0  <0>0       -0.4702
     16  C11       12.3030   33.0300   62.5270 C.ar    0  <0>0        0.1453
     17  C16       13.5280   32.6800   63.0790 C.ar    0  <0>0        0.0707
     18  C15       13.6390   31.5280   63.8350 C.ar    0  <0>0        0.0394
     19 Br         15.0390   33.7830   62.8060 Br      0  <0>0       -0.0458
     20  C14       12.5330   30.7180   64.0290 C.ar    0  <0>0        0.1408
     21  C13       11.3130   31.0630   63.4730 C.ar    0  <0>0        0.0328
     22  F1        12.6450   29.5890   64.7630 F       0  <0>0       -0.2042
     23  C12       11.1970   32.2180   62.7230 C.ar    0  <0>0        0.0397
@<TRIPOS>BOND
     1     7     8    2
     2     7     6    1
     3     8     9    1
     4    11    10    2
     5     6     5    2
     6     9    10    1
     7     9     4    1
     8    10    12   am
     9     5     4    1
    10     4     2    2
    11    12     3    1
    12    12     1    1
    13     2     1    2
    14     1    13    1
    15    15    13    1
    16    15    16    1
    17    13    14    1
    18    16    23   ar
    19    16    17   ar
    20    23    21   ar
    21    19    17    1
    22    17    18   ar
    23    21    20   ar
    24    18    20   ar
    25    20    22    1
