@<TRIPOS>MOLECULE
ZINC02303583_replica-1.pdb
 28 31 0 0 0
SMALL
GASTEIGER

@<TRIPOS>ATOM
      1  C1         7.3240   36.0310   60.3910 C.3     0  <0>0        0.0004
      2  C2         5.9310   35.4780   60.0860 C.3     0  <0>0        0.0052
      3  C3         5.2450   36.3640   59.0420 C.3     0  <0>0        0.0047
      4  C4         3.7730   35.9690   58.9130 C.3     0  <0>0        0.0231
      5  C5         3.6870   34.4660   58.6620 C.2     0  <0>0       -0.0274
      6  C6         4.7270   33.6580   58.9480 C.2     0  <0>0        0.0023
      7  S1         4.1860   32.0310   58.5030 S.3     0  <0>0       -0.0631
      8  C7         2.5570   32.4380   57.9300 C.2     0  <0>0        0.1624
      9  C8         2.4880   33.8330   58.1050 C.3     0  <0>0        0.1453
     10  C9         1.2610   34.4410   57.7170 C.2     0  <0>0        0.1774
     11  N1         0.2930   33.6860   57.2260 N.2     0  <0>0       -0.3238
     12  C10        0.4230   32.3710   57.0910 C.1     0  <0>0        0.1697
     13  N2         1.5440   31.7520   57.4370 N.2     0  <0>0       -0.3319
     14  C19        6.0530   34.0560   59.5210 C.3     0  <0>0        0.0324
     15  S2        -0.9170   31.4340   56.4360 S.3     0  <0>0       -0.0098
     16  C11       -0.0930   30.6470   55.0300 C.3     0  <0>0        0.1432
     17  C12       -1.1280   30.1420   54.0590 C.2     0  <0>0        0.1850
     18  O1        -2.0910   30.8280   53.7890 O.2     0  <0>0       -0.2904
     19  C13       -0.9700   28.8180   53.4370 C.ar    0  <0>0        0.0356
     20  C18       -1.5960   28.5360   52.2180 C.ar    0  <0>0        0.0034
     21  C17       -1.4440   27.2940   51.6410 C.ar    0  <0>0        0.0068
     22  C16       -0.6720   26.3260   52.2630 C.ar    0  <0>0        0.0346
     23  C15       -0.0500   26.5990   53.4710 C.ar    0  <0>0        0.0068
     24 Br         -0.4690   24.6250   51.4630 Br      0  <0>0       -0.0490
     25  C14       -0.1930   27.8370   54.0600 C.ar    0  <0>0        0.0034
     26  N3         1.0860   35.8070   57.8460 N.pl3   0  <0>0       -0.3350
     27  H15        1.7210   36.4180   57.4420 H       0  <0>0        0.1444
     28  H16        0.3270   36.1530   58.3410 H       0  <0>0        0.1444
@<TRIPOS>BOND
     1    24    22    1
     2    21    20   ar
     3    21    22   ar
     4    20    19   ar
     5    22    23   ar
     6    19    17    1
     7    19    25   ar
     8    23    25   ar
     9    18    17    2
    10    17    16    1
    11    16    15    1
    12    15    12    1
    13    12    11    2
    14    12    13    2
    15    11    10    2
    16    13     8    2
    17    27    26    1
    18    10    26    1
    19    10     9    1
    20    26    28    1
    21     8     9    1
    22     8     7    1
    23     9     5    1
    24     7     6    1
    25     5     4    1
    26     5     6    2
    27     4     3    1
    28     6    14    1
    29     3     2    1
    30    14     2    1
    31     2     1    1
