@<TRIPOS>MOLECULE
ZINC38173754_replica-1.pdb
 24 25 0 0 0
SMALL
GASTEIGER

@<TRIPOS>ATOM
      1  N1        10.8800   34.2030   60.9760 N.3     0  <0>0       -0.2979
      2  C12       11.6290   34.6240   62.0060 C.3     0  <0>0        0.0808
      3  H22       11.0380   33.3290   60.5870 H       0  <0>0        0.1232
      4  C9         9.8240   35.0650   60.4390 C.3     0  <0>0        0.0540
      5  C8         9.8080   34.9600   58.9120 C.3     0  <0>0        0.0157
      6  C7         8.7050   35.8600   58.3510 C.3     0  <0>0        0.0014
      7  C6         8.9730   37.3100   58.7590 C.3     0  <0>0        0.0001
      8  C11        8.9890   37.4140   60.2850 C.3     0  <0>0        0.0014
      9  C10       10.0910   36.5150   60.8480 C.3     0  <0>0        0.0157
     10  C5         7.8700   38.2100   58.1980 C.3     0  <0>0        0.0000
     11  C4         8.1440   38.4910   56.7190 C.3     0  <0>0        0.0000
     12  C3         7.0070   37.9180   55.8710 C.3     0  <0>0        0.0000
     13  C2         7.5330   36.7440   55.0420 C.3     0  <0>0        0.0000
     14  C1         6.5950   35.5450   55.2040 C.3     0  <0>0        0.0000
     15  C13       12.5810   33.7710   62.5710 C.3     0  <0>0        0.1012
     16  C18       12.2030   32.4360   63.0490 C.2     0  <0>0        0.2003
     17  C17       13.1980   31.6140   63.6040 C.2     0  <0>0        0.1776
     18  O1        11.0480   32.0450   62.9610 O.2     0  <0>0       -0.2892
     19  C16       14.4790   32.0670   63.7000 C.2     0  <0>0        0.0267
     20  C15       14.8380   33.3350   63.2530 C.2     0  <0>0       -0.0023
     21  C14       13.9270   34.1780   62.7010 C.2     0  <0>0       -0.0173
     22  N2        12.8540   30.2580   64.0900 N.pl3   0  <0>0        0.0605
     23  O2        12.6860   30.0640   65.2710 O.2     0  <0>0       -0.1260
     24  O3        12.7420   29.3450   63.3050 O.2     0  <0>0       -0.1260
@<TRIPOS>BOND
     1    13    14    1
     2    13    12    1
     3    12    11    1
     4    11    10    1
     5    10     7    1
     6     6     7    1
     7     6     5    1
     8     7     8    1
     9     5     4    1
    10     8     9    1
    11     4     9    1
    12     4     1    1
    13     3     1    1
    14     1     2    1
    15     2    15    1
    16    15    21    1
    17    15    16    1
    18    21    20    2
    19    18    16    2
    20    16    17    1
    21    20    19    1
    22    24    22    2
    23    17    19    2
    24    17    22    1
    25    22    23    2
