@<TRIPOS>MOLECULE
ZINC05399647_replica-1.pdb
 25 27 0 0 0
SMALL
GASTEIGER

@<TRIPOS>ATOM
      1  C11        8.5930   38.0770   57.5990 C.3     0  <0>0        0.2175
      2  O2         8.0750   37.1350   58.5420 O.3     0  <0>0       -0.4745
      3  C8         8.9470   36.6410   59.4620 C.ar    0  <0>0        0.1388
      4  C7         9.6190   35.4540   59.2120 C.ar    0  <0>0        0.0400
      5  C6        10.5040   34.9520   60.1470 C.ar    0  <0>0        0.0400
      6  C5        10.7200   35.6360   61.3340 C.ar    0  <0>0        0.1386
      7  C10       10.0490   36.8230   61.5830 C.ar    0  <0>0        0.0400
      8  C9         9.1670   37.3280   60.6460 C.ar    0  <0>0        0.0400
      9  O1        11.5910   35.1410   62.2540 O.3     0  <0>0       -0.4792
     10  C3        12.2880   33.9420   61.9100 C.3     0  <0>0        0.1660
     11  C4        11.7960   32.7950   62.7950 C.3     0  <0>0        0.0472
     12  C2        13.7890   34.1450   62.1240 C.3     0  <0>0        0.0435
     13  C1        14.3180   33.0700   63.0760 C.3     0  <0>0        0.0038
     14  C12        7.6340   38.1870   56.4100 C.3     0  <0>0        0.1132
     15  S1         7.2980   36.5350   55.7530 S.3     0  <0>0       -0.0634
     16  C13        5.7140   36.2380   56.4650 C.2     0  <0>0        0.2076
     17  N2         4.5760   36.2870   55.8150 N.2     0  <0>0       -0.3835
     18  C19        3.5540   36.0040   56.6640 C.2     0  <0>0        0.1332
     19  C14        4.1190   35.7740   57.9300 C.3     0  <0>0        0.1471
     20  C18        2.1680   35.9190   56.5050 C.2     0  <0>0        0.0296
     21  N1         5.4860   35.9290   57.7760 N.pl3   0  <0>0       -0.2957
     22  C15        3.3020   35.4650   59.0070 C.2     0  <0>0        0.0002
     23  H2         6.1790   35.8320   58.4900 H       0  <0>0        0.1503
     24  C16        1.9360   35.3840   58.8320 C.2     0  <0>0       -0.0024
     25  C17        1.3730   35.6110   57.5850 C.2     0  <0>0        0.0021
@<TRIPOS>BOND
     1    15    14    1
     2    15    16    1
     3    17    16    2
     4    17    18    2
     5    14     1    1
     6    16    21    1
     7    20    18    1
     8    20    25    2
     9    18    19    1
    10    25    24    1
    11     1     2    1
    12    21    19    1
    13    21    23    1
    14    19    22    1
    15     2     3    1
    16    24    22    2
    17     4     3   ar
    18     4     5   ar
    19     3     8   ar
    20     5     6   ar
    21     8     7   ar
    22     6     7   ar
    23     6     9    1
    24    10    12    1
    25    10     9    1
    26    10    11    1
    27    12    13    1
