@<TRIPOS>MOLECULE
ZINC08687005_replica-1.pdb
 23 26 0 0 0
SMALL
GASTEIGER

@<TRIPOS>ATOM
      1  C8         0.0990   26.7300   55.8170 C.2     0  <0>0        0.3491
      2  N1         0.2950   25.5430   56.3160 N.2     0  <0>0        0.0883
      3  N2        -0.4230   25.3810   57.3700 N.2     0  <0>0        0.0474
      4  C9        -1.1240   26.4660   57.6050 C.1     0  <0>0        0.1838
      5  N3        -0.8090   27.3650   56.6240 N.am    0  <0>0       -0.0978
      6  S1        -2.2510   26.7170   58.9350 S.2     0  <0>0        0.0565
      7  C10       -1.3110   28.6630   56.4730 C.ar    0  <0>0        0.1528
      8  C15       -0.5910   29.7680   56.9720 C.ar    0  <0>0        0.0381
      9  C14       -1.1160   31.0730   56.8040 C.ar    0  <0>0        0.0033
     10  C16        0.6400   29.5980   57.6260 C.ar    0  <0>0        0.0034
     11  C13       -2.3500   31.2430   56.1530 C.ar    0  <0>0        0.0002
     12  C19       -0.3940   32.1740   57.2950 C.ar    0  <0>0        0.0001
     13  C12       -3.0270   30.1580   55.6870 C.ar    0  <0>0        0.0035
     14  C11       -2.5180   28.8720   55.8420 C.ar    0  <0>0        0.0414
     15  C18        0.7910   31.9710   57.9350 C.ar    0  <0>0        0.0000
     16  C17        1.3090   30.6880   58.0950 C.ar    0  <0>0        0.0001
     17  C7         0.7520   27.3020   54.5850 C.3     0  <0>0        0.1476
     18  C4        -0.0830   26.9710   53.3750 C.ar    0  <0>0       -0.0100
     19  C3        -0.8200   27.9600   52.7520 C.ar    0  <0>0       -0.0037
     20  C2        -1.5850   27.6570   51.6420 C.ar    0  <0>0       -0.0003
     21  C1        -1.6130   26.3640   51.1530 C.ar    0  <0>0       -0.0000
     22  C6        -0.8740   25.3750   51.7750 C.ar    0  <0>0       -0.0003
     23  C5        -0.1100   25.6770   52.8870 C.ar    0  <0>0       -0.0037
@<TRIPOS>BOND
     1    21    20   ar
     2    21    22   ar
     3    20    19   ar
     4    22    23   ar
     5    19    18   ar
     6    23    18   ar
     7    18    17    1
     8    17     1    1
     9    13    14   ar
    10    13    11   ar
    11     1     2    2
    12     1     5    1
    13    14     7   ar
    14    11     9   ar
    15     2     3    1
    16     7     5    1
    17     7     8   ar
    18     5     4    1
    19     9     8   ar
    20     9    12   ar
    21     8    10   ar
    22    12    15   ar
    23     3     4    2
    24     4     6    2
    25    10    16   ar
    26    15    16   ar
