@<TRIPOS>MOLECULE
ZINC37765037_replica-1.pdb
 20 23 0 0 0
SMALL
GASTEIGER

@<TRIPOS>ATOM
      1  C1        10.8040   34.5800   60.3920 C.ar    0  <0>0        0.0033
      2  C2         9.9780   35.5160   59.8100 C.ar    0  <0>0        0.0144
      3  C3         9.7480   36.7320   60.4430 C.ar    0  <0>0        0.0446
      4  C4        10.3520   37.0090   61.6640 C.ar    0  <0>0        0.0144
      5  C5        11.1800   36.0770   62.2510 C.ar    0  <0>0        0.0033
      6  C6        11.4120   34.8540   61.6190 C.ar    0  <0>0        0.0239
      7  N2         8.9090   37.6790   59.8510 N.pl3   0  <0>0       -0.3340
      8  H7         9.1160   38.6240   59.9250 H       0  <0>0        0.1468
      9  C10        7.7180   37.2450   59.1180 C.3     0  <0>0        0.0689
     10  C11        6.5020   37.2940   60.0450 C.3     0  <0>0        0.0179
     11  C13        5.2070   36.6510   59.5470 C.3     0  <0>0        0.0017
     12  C12        6.0210   35.9730   60.6500 C.3     0  <0>0        0.0017
     13  C14        7.4870   38.1750   57.9240 C.3     0  <0>0        0.0179
     14  C16        8.7180   38.6610   57.1580 C.3     0  <0>0        0.0017
     15  C15        7.7870   37.6220   56.5300 C.3     0  <0>0        0.0017
     16  C7        12.2990   33.8530   62.2450 C.ar    0  <0>0        0.1108
     17  S1        11.8950   32.2580   62.9440 S.2     0  <0>0       -0.0659
     18  C9        13.5550   31.8060   63.4330 C.ar    0  <0>0        0.0575
     19  C8        14.2430   32.9040   63.0260 C.ar    0  <0>0        0.1064
     20  N1        13.6090   33.8970   62.4460 N.ar    0  <0>0       -0.2368
@<TRIPOS>BOND
     1    15    14    1
     2    15    13    1
     3    14    13    1
     4    13     9    1
     5     9     7    1
     6     9    10    1
     7    11    10    1
     8    11    12    1
     9     2     1   ar
    10     2     3   ar
    11     7     8    1
    12     7     3    1
    13    10    12    1
    14     1     6   ar
    15     3     4   ar
    16     6    16    1
    17     6     5   ar
    18     4     5   ar
    19    16    20   ar
    20    16    17   ar
    21    20    19   ar
    22    17    18   ar
    23    19    18   ar
