@<TRIPOS>MOLECULE
ZINC23153858_replica-1.pdb
 25 28 0 0 0
SMALL
GASTEIGER

@<TRIPOS>ATOM
      1  C4        -0.6850   28.7940   58.1060 C.ar    0  <0>0        0.0831
      2  C5        -0.3010   29.5120   56.9840 C.ar    0  <0>0        0.0518
      3  C6         0.3930   30.7680   57.1880 C.ar    0  <0>0       -0.0127
      4  C7         0.6070   31.1340   58.4750 C.ar    0  <0>0        0.0208
      5  S1        -0.1040   29.8300   59.4370 S.2     0  <0>0       -0.0754
      6  C8         1.2960   32.3750   58.9460 C.3     0  <0>0        0.1054
      7  N2         2.0190   32.9650   57.8030 N.3     0  <0>0       -0.2670
      8  C9         1.1390   33.0620   56.6300 C.3     0  <0>0        0.0771
      9  C10        0.8740   31.6690   56.0530 C.3     0  <0>0        0.0441
     10  C11        2.5760   34.2780   58.1540 C.3     0  <0>0        0.0899
     11  C12       -0.5820   29.0100   55.6280 C.2     0  <0>0        0.1624
     12  S2        -1.5210   29.7810   54.3180 S.3     0  <0>0       -0.0531
     13  C18       -1.3230   28.4920   53.1120 C.2     0  <0>0        0.0574
     14  C13       -0.5390   27.5430   53.8080 C.2     0  <0>0        0.1374
     15  C17       -1.7430   28.2990   51.8200 C.2     0  <0>0       -0.0123
     16  N3        -0.2000   27.8780   55.0710 N.2     0  <0>0       -0.3948
     17  C14       -0.2020   26.3680   53.0970 C.2     0  <0>0        0.0283
     18  C15       -0.6260   26.1840   51.8080 C.2     0  <0>0       -0.0188
     19  C16       -1.3950   27.1380   51.1540 C.3     0  <0>0        0.0527
     20  N1        -1.3540   27.5770   58.1760 N.am    0  <0>0       -0.2789
     21  C3        -0.6600   26.4370   58.3570 C.2     0  <0>0        0.2265
     22  O1         0.5490   26.4710   58.4590 O.2     0  <0>0       -0.2748
     23  H6        -2.4500   27.5460   58.0840 H       0  <0>0        0.1553
     24  C2        -1.3850   25.1180   58.4330 C.3     0  <0>0        0.0854
     25  C1        -0.4700   24.0020   57.9210 C.3     0  <0>0        0.0101
@<TRIPOS>BOND
     1    19    18    1
     2    19    15    1
     3    18    17    2
     4    15    13    2
     5    17    14    1
     6    13    14    1
     7    13    12    1
     8    14    16    2
     9    12    11    1
    10    16    11    2
    11    11     2    1
    12     9     8    1
    13     9     3    1
    14     8     7    1
    15     2     3   ar
    16     2     1   ar
    17     3     4   ar
    18     7    10    1
    19     7     6    1
    20    25    24    1
    21    23    20    1
    22     1    20    1
    23     1     5   ar
    24    20    21   am
    25    21    24    1
    26    21    22    2
    27     4     6    1
    28     4     5   ar
