@<TRIPOS>MOLECULE
ZINC27528910_replica-1.pdb
 29 31 0 0 0
SMALL
GASTEIGER

@<TRIPOS>ATOM
      1  C10        8.8710   36.7430   58.6560 C.ar    0  <0>0       -0.0204
      2  C11        8.9740   37.5500   59.7740 C.ar    0  <0>0       -0.0029
      3  C12        9.6990   37.1240   60.8710 C.ar    0  <0>0        0.0140
      4  C13       10.3330   35.8880   60.8440 C.ar    0  <0>0        0.0448
      5  C14       10.2320   35.0820   59.7180 C.ar    0  <0>0        0.0140
      6  C15        9.5010   35.5120   58.6270 C.ar    0  <0>0       -0.0029
      7  N2        11.0710   35.4570   61.9490 N.pl3   0  <0>0       -0.3291
      8  H17       10.6710   35.5900   62.9660 H       0  <0>0        0.1471
      9  C16       12.3780   34.8240   61.7540 C.3     0  <0>0        0.1143
     10  C17       12.4030   33.4940   62.4610 C.ar    0  <0>0       -0.0025
     11  C22       11.2310   32.7790   62.6290 C.ar    0  <0>0       -0.0009
     12  C21       11.2520   31.5580   63.2780 C.ar    0  <0>0        0.0238
     13  C20       12.4460   31.0520   63.7580 C.ar    0  <0>0        0.1429
     14  C19       13.6170   31.7660   63.5890 C.ar    0  <0>0        0.0238
     15  C18       13.5960   32.9850   62.9370 C.ar    0  <0>0       -0.0009
     16  N3        12.4690   29.7450   64.4520 N.pl3   0  <0>0        0.0577
     17  O1        12.0400   28.7520   63.8940 O.2     0  <0>0       -0.1261
     18  O2        12.9160   29.6650   65.5820 O.2     0  <0>0       -0.1261
     19  C9         8.0750   37.2090   57.4650 C.3     0  <0>0        0.0475
     20  C8         7.1040   36.1060   57.0370 C.3     0  <0>0        0.0918
     21  N1         6.1290   35.8720   58.1060 N.pl3   0  <0>0       -0.3324
     22  H8         6.4740   35.7120   59.1390 H       0  <0>0        0.1468
     23  C5         4.7640   35.8530   57.8150 C.ar    0  <0>0        0.0446
     24  C4         4.3330   35.6930   56.5040 C.ar    0  <0>0        0.0140
     25  C3         2.9820   35.6740   56.2190 C.ar    0  <0>0       -0.0030
     26  C2         2.0570   35.8150   57.2390 C.ar    0  <0>0       -0.0218
     27  C1         0.5840   35.7950   56.9240 C.3     0  <0>0        0.0310
     28  C7         2.4820   35.9750   58.5450 C.ar    0  <0>0       -0.0030
     29  C6         3.8320   35.9940   58.8360 C.ar    0  <0>0        0.0140
@<TRIPOS>BOND
     1    25    24   ar
     2    25    26   ar
     3    24    23   ar
     4    27    26    1
     5    20    19    1
     6    20    21    1
     7    26    28   ar
     8    19     1    1
     9    23    21    1
    10    23    29   ar
    11    21    22    1
    12    28    29   ar
    13     6     1   ar
    14     6     5   ar
    15     1     2   ar
    16     5     4   ar
    17     2     3   ar
    18     4     3   ar
    19     4     7    1
    20     9     7    1
    21     9    10    1
    22     7     8    1
    23    10    11   ar
    24    10    15   ar
    25    11    12   ar
    26    15    14   ar
    27    12    13   ar
    28    14    13   ar
    29    13    16    1
    30    17    16    2
    31    16    18    2
