@<TRIPOS>MOLECULE
ZINC11864433_replica-1.pdb
 26 27 0 0 0
SMALL
GASTEIGER

@<TRIPOS>ATOM
      1  C12        4.2100   32.5010   59.9220 C.3     0  <0>0        0.2525
      2  C11        5.2060   33.1300   60.8980 C.3     0  <0>0        0.2525
      3  O1         5.1840   34.5520   60.7510 O.3     0  <0>0       -0.4714
      4  C4         5.9470   35.0810   59.7600 C.ar    0  <0>0        0.1384
      5  C3         7.3140   34.8430   59.7340 C.ar    0  <0>0        0.0323
      6  C2         8.0890   35.3820   58.7260 C.ar    0  <0>0       -0.0228
      7  C1         9.5730   35.1250   58.6970 C.3     0  <0>0        0.0308
      8  C7         7.5030   36.1580   57.7420 C.ar    0  <0>0       -0.0262
      9  C6         6.1420   36.3970   57.7650 C.ar    0  <0>0       -0.0015
     10  C5         5.3620   35.8550   58.7680 C.ar    0  <0>0        0.0366
     11  C8         8.3510   36.7440   56.6420 C.3     0  <0>0        0.0220
     12  C9         7.6340   36.5780   55.3010 C.3     0  <0>0        0.0047
     13  C10        8.5820   38.2320   56.9150 C.3     0  <0>0        0.0047
     14  O2         4.9050   31.6180   59.0370 O.3     0  <0>0       -0.4713
     15  C13        5.3570   32.1460   57.8700 C.ar    0  <0>0        0.1433
     16  C18        6.7120   32.0410   57.5300 C.ar    0  <0>0        0.0566
     17  C17        7.1690   32.5850   56.3270 C.ar    0  <0>0        0.0078
     18  C16        6.2880   33.2210   55.4810 C.ar    0  <0>0        0.0372
     19  C15        4.9430   33.3240   55.8210 C.ar    0  <0>0        0.1418
     20  C14        4.4790   32.7830   57.0100 C.ar    0  <0>0        0.0738
     21  C19        7.6530   31.3590   58.4380 C.2     0  <0>0        0.1428
     22  N1         7.8610   30.0870   58.3200 N.2     0  <0>0       -0.0846
     23  O3         7.0610   29.3180   57.4400 O.2     0  <0>0       -0.4087
     24  H22        6.2840   28.6520   57.8440 H       0  <0>0        0.3278
     25  O4         4.0810   33.9530   54.9820 O.3     0  <0>0       -0.4713
     26  C20        4.6510   34.7250   53.9240 C.3     0  <0>0        0.2525
@<TRIPOS>BOND
     1    26    25    1
     2    25    19    1
     3    12    11    1
     4    18    19   ar
     5    18    17   ar
     6    19    20   ar
     7    17    16   ar
     8    11    13    1
     9    11     8    1
    10    20    15   ar
    11    23    24    1
    12    23    22    1
    13    16    15   ar
    14    16    21    1
    15     8     9   ar
    16     8     6   ar
    17     9    10   ar
    18    15    14    1
    19    22    21    2
    20     7     6    1
    21     6     5   ar
    22    10     4   ar
    23    14     1    1
    24     5     4   ar
    25     4     3    1
    26     1     2    1
    27     3     2    1
