@<TRIPOS>MOLECULE
ZINC50482617_replica-1.pdb
 19 19 0 0 0
SMALL
GASTEIGER

@<TRIPOS>ATOM
      1  C4        11.2910   35.1040   61.2620 C.3     0  <0>0        0.0002
      2  C5        10.4990   36.2620   61.8730 C.3     0  <0>0        0.0023
      3  C6         9.9150   37.1260   60.7550 C.3     0  <0>0        0.0251
      4  C7         8.9870   36.2770   59.8850 C.3     0  <0>0        0.0737
      5  C8         9.7780   35.1190   59.2740 C.3     0  <0>0        0.0251
      6  C9        10.3620   34.2530   60.3920 C.3     0  <0>0        0.0023
      7  C10        8.4020   37.1410   58.7670 C.3     0  <0>0       -0.0536
      8  N1         8.5980   36.4710   57.4750 N.4     0  <0>0        0.3879
      9  H19        9.5130   36.6980   57.1140 H       0  <0>0       -0.0842
     10  H32        8.5250   35.4720   57.6000 H       0  <0>0       -0.0842
     11  C11        7.5710   36.9230   56.5280 C.3     0  <0>0       -0.0459
     12  C12        7.8710   36.3550   55.1390 C.3     0  <0>0       -0.0215
     13  C13        6.1970   36.4340   56.9920 C.3     0  <0>0       -0.0215
     14  C14        7.5740   38.4520   56.4640 C.3     0  <0>0       -0.0215
     15  O1         7.9250   35.7560   60.6890 O.3     0  <0>0       -0.3579
     16  C15        6.7550   36.5750   60.7060 C.3     0  <0>0        0.1738
     17  C2        11.8750   34.2380   62.3800 C.3     0  <0>0        0.0000
     18  C1        11.2290   32.8520   62.3420 C.3     0  <0>0        0.0000
     19  C3        13.3860   34.1020   62.1840 C.3     0  <0>0        0.0000
@<TRIPOS>BOND
     1    12    11    1
     2    14    11    1
     3    11    13    1
     4    11     8    1
     5     9     8    1
     6     8    10    1
     7     8     7    1
     8     7     4    1
     9     5     4    1
    10     5     6    1
    11     4    15    1
    12     4     3    1
    13     6     1    1
    14    15    16    1
    15     3     2    1
    16     1     2    1
    17     1    17    1
    18    19    17    1
    19    18    17    1
