@<TRIPOS>MOLECULE
ZINC59292486_replica-1.pdb
 26 28 0 0 0
SMALL
GASTEIGER

@<TRIPOS>ATOM
      1  C11        1.3740   31.2420   56.7700 C.3     0  <0>0        0.0941
      2  C10        1.3650   31.0000   58.2810 C.3     0  <0>0        0.0491
      3  C8         0.9290   32.2560   58.9880 C.ar    0  <0>0       -0.0021
      4  C6         0.4530   32.3580   60.3700 C.ar    0  <0>0        0.0128
      5  C5         0.1640   33.7180   60.5820 C.ar    0  <0>0        0.0563
      6  C7         0.2650   31.4360   61.4010 C.ar    0  <0>0       -0.0031
      7  C4        -0.3140   34.1280   61.8230 C.ar    0  <0>0        0.0166
      8  N1         0.4460   34.3820   59.4090 N.ar    0  <0>0       -0.3523
      9  C3        -0.4980   33.2010   62.8250 C.ar    0  <0>0       -0.0028
     10  C2        -0.2120   31.8600   62.6100 C.ar    0  <0>0       -0.0218
     11  C1        -0.4210   30.8630   63.7220 C.3     0  <0>0        0.0310
     12  C9         0.9000   33.4950   58.4710 C.ar    0  <0>0        0.0681
     13  H1         0.3400   35.3360   59.2690 H       0  <0>0        0.1660
     14  N2         0.6360   30.1680   56.1000 N.am    0  <0>0       -0.3040
     15  C12       -0.6480   30.3590   55.7370 C.2     0  <0>0        0.2228
     16  O1        -1.1930   31.4180   55.9650 O.2     0  <0>0       -0.2751
     17  H14        1.0710   29.3210   55.9170 H       0  <0>0        0.1494
     18  C13       -1.4080   29.2550   55.0470 C.3     0  <0>0        0.0894
     19  C14       -1.2770   29.4160   53.5310 C.3     0  <0>0        0.0314
     20  C15       -2.5480   30.0580   52.9740 C.3     0  <0>0        0.0052
     21  C16       -1.0790   28.0630   52.8980 C.ar    0  <0>0       -0.0220
     22  C21       -0.2420   27.1370   53.4920 C.ar    0  <0>0       -0.0043
     23  C20       -0.0640   25.8930   52.9140 C.ar    0  <0>0       -0.0003
     24  C19       -0.7160   25.5800   51.7370 C.ar    0  <0>0       -0.0000
     25  C18       -1.5490   26.5080   51.1390 C.ar    0  <0>0       -0.0003
     26  C17       -1.7300   27.7490   51.7190 C.ar    0  <0>0       -0.0043
@<TRIPOS>BOND
     1    25    26   ar
     2    25    24   ar
     3    26    21   ar
     4    24    23   ar
     5    21    22   ar
     6    21    19    1
     7    23    22   ar
     8    20    19    1
     9    19    18    1
    10    18    15    1
    11    15    16    2
    12    15    14   am
    13    17    14    1
    14    14     1    1
    15     1     2    1
    16     2     3    1
    17    12     3   ar
    18    12     8   ar
    19     3     4   ar
    20    13     8    1
    21     8     5   ar
    22     4     5   ar
    23     4     6   ar
    24     5     7   ar
    25     6    10   ar
    26     7     9   ar
    27    10     9   ar
    28    10    11    1
