@<TRIPOS>MOLECULE
ZINC50130235_replica-1.pdb
 20 22 0 0 0
SMALL
GASTEIGER

@<TRIPOS>ATOM
      1  N1         8.2380   36.5570   57.1490 N.3     0  <0>0       -0.2379
      2  C7         7.6120   37.7630   57.2330 C.3     0  <0>0        0.2014
      3  N2         7.8730   38.3220   58.3790 N.2     0  <0>0       -0.2549
      4  C8         8.6830   37.5140   59.1080 C.2     0  <0>0        0.0764
      5  C9         8.9240   36.3670   58.3330 C.3     0  <0>0        0.1244
      6  C10        9.7250   35.3480   58.8310 C.2     0  <0>0        0.0276
      7  C11       10.2810   35.4640   60.0880 C.2     0  <0>0        0.1649
      8  C12       10.0430   36.5970   60.8620 C.2     0  <0>0        0.1683
      9  C13        9.2560   37.6190   60.3800 C.2     0  <0>0        0.0479
     10  F1        10.5930   36.6960   62.0920 F       0  <0>0       -0.2018
     11  F2        11.0610   34.4730   60.5720 F       0  <0>0       -0.2021
     12  C6         8.1870   35.6300   56.0160 C.3     0  <0>0        0.1448
     13  C5         7.2210   34.5140   56.3230 C.2     0  <0>0        0.1956
     14  O1         7.6380   33.4310   56.6790 O.2     0  <0>0       -0.2893
     15  C3         5.8320   34.7290   56.1960 C.ar    0  <0>0        0.0717
     16  S1         4.8180   34.6930   54.7300 S.2     0  <0>0       -0.0830
     17  C2         3.3300   35.0400   55.4270 C.ar    0  <0>0        0.0361
     18  C1         3.6030   35.1790   56.7490 C.ar    0  <0>0        0.0143
     19  C4         4.8960   35.0230   57.1840 C.ar    0  <0>0        0.0439
     20 Br          5.3740   35.1980   59.0050 Br      0  <0>0       -0.0484
@<TRIPOS>BOND
     1    16    17   ar
     2    16    15   ar
     3    17    18   ar
     4    12    13    1
     5    12     1    1
     6    15    13    1
     7    15    19   ar
     8    13    14    2
     9    18    19   ar
    10     1     2    1
    11     1     5    1
    12    19    20    1
    13     2     3    1
    14     5     6    1
    15     5     4    1
    16     3     4    2
    17     6     7    2
    18     4     9    1
    19     7    11    1
    20     7     8    1
    21     9     8    2
    22     8    10    1
