@<TRIPOS>MOLECULE
ZINC08254097_replica-1.pdb
 26 28 0 0 0
SMALL
GASTEIGER

@<TRIPOS>ATOM
      1  C3        -0.7500   30.6200   55.4550 C.ar    0  <0>0        0.1723
      2  C4        -0.5090   31.7460   56.2240 C.ar    0  <0>0        0.0337
      3  C5         0.0350   31.6170   57.4880 C.ar    0  <0>0       -0.0400
      4  C6         0.3340   30.3640   57.9910 C.ar    0  <0>0        0.0036
      5  C7         0.0900   29.2350   57.2300 C.ar    0  <0>0        0.0711
      6  C8        -0.4540   29.3580   55.9610 C.ar    0  <0>0        0.1788
      7 Br          0.5010   27.5220   57.9200 Br      0  <0>0       -0.0457
      8  O2        -0.6940   28.2490   55.2110 O.3     0  <0>0       -0.4671
      9  C9         0.3590   27.8090   54.3510 C.3     0  <0>0        0.2330
     10  C10       -0.2200   26.9970   53.2210 C.ar    0  <0>0        0.0317
     11  C15       -0.0920   25.6200   53.2210 C.ar    0  <0>0        0.0572
     12  C14       -0.6300   24.8750   52.1860 C.ar    0  <0>0        0.0112
     13 Cl          0.7360   24.8250   54.5240 Cl      0  <0>0       -0.0825
     14  C13       -1.2890   25.5080   51.1500 C.ar    0  <0>0        0.0008
     15  C12       -1.4130   26.8860   51.1470 C.ar    0  <0>0       -0.0002
     16  C11       -0.8760   27.6300   52.1820 C.ar    0  <0>0        0.0002
     17  O1        -1.2800   30.7470   54.2090 O.3     0  <0>0       -0.4724
     18  C2        -2.7040   30.7010   54.1010 C.3     0  <0>0        0.2057
     19  C1        -3.0940   30.1160   52.7420 C.3     0  <0>0        0.0512
     20  C16        0.3020   32.8440   58.3210 C.3     0  <0>0       -0.0541
     21  N1         0.1350   34.0440   57.4810 N.4     0  <0>0        0.3878
     22  H21       -0.8660   34.2030   57.3120 H       0  <0>0       -0.0839
     23  H22        0.6150   33.9010   56.5850 H       0  <0>0       -0.0839
     24  C17        0.7060   35.2260   58.1560 C.3     0  <0>0       -0.0616
     25  C19        1.7240   34.9720   59.2690 C.3     0  <0>0       -0.0234
     26  C18        2.1890   35.5190   57.9190 C.3     0  <0>0       -0.0234
@<TRIPOS>BOND
     1    15    14   ar
     2    15    16   ar
     3    14    12   ar
     4    16    10   ar
     5    12    11   ar
     6    19    18    1
     7    10    11   ar
     8    10     9    1
     9    11    13    1
    10    18    17    1
    11    17     1    1
    12     9     8    1
    13     8     6    1
    14     1     6   ar
    15     1     2   ar
    16     6     5   ar
    17     2     3   ar
    18    23    21    1
    19     5     7    1
    20     5     4   ar
    21    22    21    1
    22    21    24    1
    23    21    20    1
    24     3     4   ar
    25     3    20    1
    26    26    24    1
    27    26    25    1
    28    24    25    1
