@<TRIPOS>MOLECULE
ZINC04024383_replica-1.pdb
 25 26 0 0 0
SMALL
GASTEIGER

@<TRIPOS>ATOM
      1  C7         8.2060   35.9230   59.3980 C.3     0  <0>0        0.0719
      2  C8         6.8730   35.1960   59.5010 C.3     0  <0>0        0.1463
      3  O3         6.1870   35.1690   58.2730 O.3     0  <0>0       -0.3514
      4  C9         5.9230   36.4670   57.7310 C.3     0  <0>0        0.1405
      5  C10        7.2780   37.1440   57.4530 C.3     0  <0>0        0.0496
      6  C11        7.9930   37.3170   58.8000 C.3     0  <0>0        0.0125
      7  C12        7.1290   38.1580   59.7420 C.3     0  <0>0        0.0006
      8  C13        8.0840   36.2050   56.5920 C.2     0  <0>0       -0.0458
      9  C14        8.9090   35.3340   57.0770 C.2     0  <0>0       -0.0346
     10  C15        9.1980   35.1500   58.5360 C.3     0  <0>0        0.0272
     11  C16        9.1070   33.6620   58.8790 C.3     0  <0>0        0.0049
     12  C17        7.9230   36.2860   55.0960 C.3     0  <0>0        0.0261
     13  C6         8.7940   36.0750   60.8030 C.3     0  <0>0        0.2126
     14  O2        10.2160   36.3510   60.7060 O.3     0  <0>0       -0.4346
     15  C5        11.0060   35.8350   61.6660 C.2     0  <0>0        0.4016
     16  N1        11.4040   34.5500   61.5920 N.am    0  <0>0       -0.2707
     17  H14       11.1220   33.9960   60.8480 H       0  <0>0        0.1527
     18  O1        11.3600   36.5290   62.5990 O.2     0  <0>0       -0.2264
     19  C4        12.2630   33.9880   62.6380 C.3     0  <0>0        0.0927
     20  C3        13.7290   34.1310   62.2250 C.3     0  <0>0        0.0214
     21  C2        14.5600   33.0420   62.9060 C.3     0  <0>0        0.0018
     22  C1        13.6280   31.9720   63.4790 C.3     0  <0>0        0.0001
     23  C18        5.1450   36.3360   56.4460 C.2     0  <0>0       -0.0014
     24  C19        4.5330   35.2130   56.1640 C.2     0  <0>0       -0.0280
     25  C20        3.7540   35.0810   54.8800 C.3     0  <0>0        0.0304
@<TRIPOS>BOND
     1    25    24    1
     2    12     8    1
     3    24    23    2
     4    23     4    1
     5     8     9    2
     6     8     5    1
     7     9    10    1
     8     5     4    1
     9     5     6    1
    10     4     3    1
    11     3     2    1
    12    10    11    1
    13    10     1    1
    14     6     1    1
    15     6     7    1
    16     1     2    1
    17     1    13    1
    18    14    13    1
    19    14    15    1
    20    17    16    1
    21    16    15   am
    22    16    19    1
    23    15    18    2
    24    20    19    1
    25    20    21    1
    26    21    22    1
