@<TRIPOS>MOLECULE
ZINC02435198_replica-1.pdb
 27 29 0 0 0
SMALL
GASTEIGER

@<TRIPOS>ATOM
      1  C5         8.2720   34.9510   59.4540 C.1     0  <0>0        0.1692
      2  N1         7.7470   35.6580   58.4600 N.2     0  <0>0       -0.3236
      3  C6         6.4440   35.7030   58.2420 C.2     0  <0>0        0.1806
      4  C7         5.5690   34.9710   59.0940 C.3     0  <0>0        0.1456
      5  C8         4.1120   34.8730   59.0450 C.2     0  <0>0       -0.0227
      6  C9         3.5160   34.1030   59.9800 C.2     0  <0>0        0.0319
      7  S2         4.8400   33.4710   60.9700 S.3     0  <0>0       -0.0606
      8  C10        6.1960   34.2430   60.1260 C.2     0  <0>0        0.1625
      9  N2         7.5060   34.2500   60.2790 N.2     0  <0>0       -0.3319
     10  C11        2.0440   33.8600   60.1200 C.3     0  <0>0        0.1742
     11  O1         1.3580   34.8220   59.3050 O.3     0  <0>0       -0.3529
     12  C12        1.8790   34.9210   57.9770 C.3     0  <0>0        0.0971
     13  C13        3.2570   35.5890   58.0010 C.3     0  <0>0        0.0503
     14  C14        2.0050   33.5200   57.3750 C.3     0  <0>0        0.0300
     15  C15        0.9280   35.7580   57.1190 C.3     0  <0>0        0.0300
     16  N3         5.9370   36.4530   57.1960 N.pl3   0  <0>0       -0.3084
     17  H21        5.4500   37.2720   57.3780 H       0  <0>0        0.1490
     18  C16        6.1350   36.0110   55.8140 C.3     0  <0>0        0.1183
     19  C17        7.2490   36.8360   55.1690 C.3     0  <0>0        0.1301
     20  C18        7.2200   38.2590   55.7280 C.3     0  <0>0        0.0335
     21  O2         8.5140   36.2370   55.4580 O.3     0  <0>0       -0.3827
     22  H27        9.0560   36.7410   56.0790 H       0  <0>0        0.2104
     23  S1        10.0200   34.9420   59.6800 S.3     0  <0>0       -0.0181
     24  C4        10.1870   36.2750   60.8920 C.3     0  <0>0        0.0744
     25  C3        11.2190   35.8780   61.9490 C.3     0  <0>0        0.0128
     26  C2        11.7880   34.4980   61.6130 C.3     0  <0>0        0.0009
     27  C1        12.2640   33.8160   62.8980 C.3     0  <0>0        0.0000
@<TRIPOS>BOND
     1    19    21    1
     2    19    20    1
     3    19    18    1
     4    21    22    1
     5    18    16    1
     6    15    12    1
     7    16    17    1
     8    16     3    1
     9    14    12    1
    10    12    13    1
    11    12    11    1
    12    13     5    1
    13     3     2    2
    14     3     4    1
    15     2     1    2
    16     5     4    1
    17     5     6    2
    18     4     8    1
    19    11    10    1
    20     1    23    1
    21     1     9    2
    22    23    24    1
    23     6    10    1
    24     6     7    1
    25     8     9    2
    26     8     7    1
    27    24    25    1
    28    26    25    1
    29    26    27    1
