@<TRIPOS>MOLECULE
ZINC36957440_replica-1.pdb
 20 21 0 0 0
SMALL
GASTEIGER

@<TRIPOS>ATOM
      1  C1         8.8610   32.6800   60.4330 C.3     0  <0>0        0.0261
      2  C2         9.6170   33.9630   60.7890 C.3     0  <0>0        0.0919
      3  C3        10.8580   33.6150   61.5690 C.ar    0  <0>0       -0.0044
      4  C8        11.9520   34.4600   61.5390 C.ar    0  <0>0        0.0004
      5  C7        13.0880   34.1450   62.2590 C.ar    0  <0>0        0.0366
      6  C6        13.1360   32.9750   63.0020 C.ar    0  <0>0        0.1387
      7  C5        12.0390   32.1270   63.0260 C.ar    0  <0>0        0.0366
      8  C4        10.9020   32.4480   62.3090 C.ar    0  <0>0        0.0004
      9  O1        14.2540   32.6620   63.7070 O.3     0  <0>0       -0.4714
     10  C9        15.1770   33.7220   63.9650 C.3     0  <0>0        0.2525
     11  N1         9.9930   34.6640   59.5590 N.pl3   0  <0>0       -0.3302
     12  H12       10.6550   34.2770   58.9630 H       0  <0>0        0.1471
     13  C10        9.3990   35.8910   59.2430 C.ar    0  <0>0        0.0505
     14  C15        8.7110   36.0460   58.0390 C.ar    0  <0>0        0.0383
     15  C14        8.1180   37.2640   57.7350 C.ar    0  <0>0        0.0074
     16  C13        8.2210   38.3220   58.6180 C.ar    0  <0>0        0.0006
     17  C12        8.9080   38.1700   59.8090 C.ar    0  <0>0        0.0013
     18  C11        9.4970   36.9580   60.1220 C.ar    0  <0>0        0.0148
     19  S1         8.5880   34.6980   56.9110 S.3     0  <0>0       -0.1115
     20  C16        7.1210   35.0890   55.9180 C.3     0  <0>0        0.0742
@<TRIPOS>BOND
     1    20    19    1
     2    19    14    1
     3    15    14   ar
     4    15    16   ar
     5    14    13   ar
     6    16    17   ar
     7    12    11    1
     8    13    11    1
     9    13    18   ar
    10    11     2    1
    11    17    18   ar
    12     1     2    1
    13     2     3    1
    14     4     3   ar
    15     4     5   ar
    16     3     8   ar
    17     5     6   ar
    18     8     7   ar
    19     6     7   ar
    20     6     9    1
    21     9    10    1
