@<TRIPOS>MOLECULE
ZINC28165384_replica-1.pdb
 26 30 0 0 0
SMALL
GASTEIGER

@<TRIPOS>ATOM
      1  C10        8.4270   34.4830   59.3670 C.2     0  <0>0        0.1575
      2  C11        8.1140   35.1410   58.1450 C.3     0  <0>0        0.1373
      3  C12        8.0690   36.5870   57.8700 C.2     0  <0>0       -0.0282
      4  C13        7.7470   36.9570   56.6210 C.2     0  <0>0        0.0023
      5  S2         7.4810   35.4350   55.7400 S.3     0  <0>0       -0.0631
      6  C14        7.8080   34.2990   57.0610 C.2     0  <0>0        0.1608
      7  N3         7.8140   32.9850   57.1850 N.2     0  <0>0       -0.3407
      8  C15        8.1110   32.4290   58.3440 C.1     0  <0>0        0.1149
      9  N4         8.4040   33.1590   59.4060 N.2     0  <0>0       -0.3410
     10  C16        8.1110   30.9270   58.4610 C.3     0  <0>0        0.1429
     11  C17        7.7360   38.4540   56.4560 C.3     0  <0>0        0.0327
     12  C18        8.5250   38.9820   57.6750 C.3     0  <0>0        0.0096
     13  C19        8.3130   37.8510   58.6990 C.3     0  <0>0        0.0234
     14  S1         8.8320   35.4140   60.8070 S.3     0  <0>0       -0.0760
     15  C9        10.6280   35.5250   60.6140 C.3     0  <0>0        0.1386
     16  C8        11.2880   34.4470   61.4360 C.2     0  <0>0        0.1684
     17  N1        10.6890   33.3890   61.8990 N.2     0  <0>0       -0.3931
     18  C6        11.5740   32.6290   62.5930 C.2     0  <0>0        0.1318
     19  C5        12.8100   33.2960   62.5460 C.3     0  <0>0        0.1464
     20  C7        11.4720   31.4180   63.2810 C.2     0  <0>0        0.0253
     21  C4        13.9150   32.7470   63.1830 C.2     0  <0>0       -0.0001
     22  N2        12.5970   34.4430   61.8090 N.pl3   0  <0>0       -0.3035
     23  C3        13.7910   31.5510   63.8570 C.2     0  <0>0       -0.0067
     24  C2        12.5710   30.8930   63.9010 C.2     0  <0>0       -0.0198
     25  C1        12.4550   29.5850   64.6420 C.3     0  <0>0        0.0311
     26  H1        13.4260   35.1430   61.6280 H       0  <0>0        0.1495
@<TRIPOS>BOND
     1     5     4    1
     2     5     6    1
     3    11     4    1
     4    11    12    1
     5     4     3    2
     6     6     7    2
     7     6     2    1
     8     7     8    2
     9    12    13    1
    10     3     2    1
    11     3    13    1
    12     2     1    1
    13     8    10    1
    14     8     9    2
    15     1     9    2
    16     1    14    1
    17    15    14    1
    18    15    16    1
    19    16    22    1
    20    16    17    2
    21    26    22    1
    22    22    19    1
    23    17    18    2
    24    19    18    1
    25    19    21    1
    26    18    20    1
    27    21    23    2
    28    20    24    2
    29    23    24    1
    30    24    25    1
