@<TRIPOS>MOLECULE
ZINC64676146_replica-1.pdb
 28 31 0 0 0
SMALL
GASTEIGER

@<TRIPOS>ATOM
      1  C8         4.8820   35.9450   58.4130 C.2     0  <0>0        0.1315
      2  C9         5.8660   36.5700   59.1050 C.3     0  <0>0        0.1569
      3  N1         6.8140   37.0040   58.1860 N.pl3   0  <0>0       -0.2532
      4  C10        8.0160   37.6800   58.1950 C.2     0  <0>0        0.0476
      5  C11        8.6680   37.9250   57.0600 C.2     0  <0>0        0.0501
      6  S1         7.5860   37.1900   55.8440 S.3     0  <0>0       -0.0383
      7  C12        6.3350   36.6070   56.9650 C.2     0  <0>0        0.2182
      8  N2         5.2030   35.9810   57.1040 N.2     0  <0>0       -0.3829
      9  C13        8.5990   38.1450   59.5040 C.3     0  <0>0        0.1272
     10  C14        8.9820   36.9490   60.3370 C.2     0  <0>0        0.2319
     11  O1         8.4730   36.7800   61.4250 O.2     0  <0>0       -0.2744
     12  N3         9.8890   36.0670   59.8730 N.am    0  <0>0       -0.2836
     13  H12       10.2460   36.1650   58.9770 H       0  <0>0        0.1549
     14  C15       10.3170   35.0100   60.6840 C.ar    0  <0>0        0.0500
     15  C20       11.4190   35.1720   61.5140 C.ar    0  <0>0        0.0101
     16  C19       11.8350   34.1270   62.3170 C.ar    0  <0>0       -0.0246
     17  C18       11.1620   32.9190   62.2880 C.ar    0  <0>0       -0.0257
     18  C21       13.0260   34.3040   63.2230 C.3     0  <0>0        0.0307
     19  C17       10.0680   32.7540   61.4590 C.ar    0  <0>0       -0.0033
     20  C22       11.6230   31.7810   63.1610 C.3     0  <0>0        0.0307
     21  C16        9.6430   33.7950   60.6570 C.ar    0  <0>0        0.0143
     22  C5         3.6660   35.3260   58.9960 C.ar    0  <0>0        0.0272
     23  C4         3.7820   34.2430   59.8660 C.ar    0  <0>0        0.0019
     24  C3         2.6480   33.6720   60.4060 C.ar    0  <0>0       -0.0042
     25  C2         1.3990   34.1710   60.0860 C.ar    0  <0>0       -0.0218
     26  C1         0.1640   33.5420   60.6790 C.3     0  <0>0        0.0310
     27  C7         1.2770   35.2420   59.2190 C.ar    0  <0>0       -0.0042
     28  C6         2.4040   35.8250   58.6770 C.ar    0  <0>0        0.0019
@<TRIPOS>BOND
     1     6     7    1
     2     6     5    1
     3     7     8    2
     4     7     3    1
     5     5     4    2
     6     8     1    2
     7     3     4    1
     8     3     2    1
     9     4     9    1
    10     1    22    1
    11     1     2    1
    12    28    22   ar
    13    28    27   ar
    14    13    12    1
    15    22    23   ar
    16    27    25   ar
    17     9    10    1
    18    23    24   ar
    19    12    10   am
    20    12    14    1
    21    25    24   ar
    22    25    26    1
    23    10    11    2
    24    21    14   ar
    25    21    19   ar
    26    14    15   ar
    27    19    17   ar
    28    15    16   ar
    29    17    16   ar
    30    17    20    1
    31    16    18    1
