@<TRIPOS>MOLECULE
ZINC12569727_replica-1.pdb
 32 36 0 0 0
SMALL
GASTEIGER

@<TRIPOS>ATOM
      1  N1        10.7820   33.8320   61.2630 N.ar    0  <0>0       -0.2282
      2  C7         9.5840   33.2200   61.2580 C.ar    0  <0>0        0.1019
      3  C8         8.7500   33.9290   60.4130 C.ar    0  <0>0        0.0387
      4  C9         9.5490   35.0400   59.8820 C.ar    0  <0>0        0.1027
      5  N2        10.7450   34.9440   60.4170 N.ar    0  <0>0       -0.1651
      6  C16        7.3470   33.6280   60.1050 C.2     0  <0>0        0.0078
      7  C17        6.3950   34.5660   60.3050 C.2     0  <0>0        0.0584
      8  C18        5.0400   34.2740   60.0060 C.2     0  <0>0        0.2529
      9  O1         4.3210   33.7830   60.8570 O.2     0  <0>0       -0.2696
     10  N3         4.5480   34.5410   58.7800 N.am    0  <0>0       -0.2555
     11  C23        3.1950   34.3220   58.4930 C.ar    0  <0>0        0.0501
     12  C19        5.4220   35.0730   57.7250 C.3     0  <0>0        0.0988
     13  C22        2.6200   34.8410   57.3440 C.ar    0  <0>0       -0.0084
     14  C24        2.4270   33.5750   59.3780 C.ar    0  <0>0        0.0146
     15  C21        3.4220   35.6510   56.3580 C.3     0  <0>0        0.0294
     16  C27        1.2790   34.6120   57.0870 C.ar    0  <0>0       -0.0030
     17  C20        4.6780   36.2120   57.0240 C.3     0  <0>0        0.0266
     18  C26        0.5170   33.8700   57.9690 C.ar    0  <0>0       -0.0002
     19  C25        1.0900   33.3500   59.1160 C.ar    0  <0>0        0.0013
     20  C10        9.0910   36.0770   58.9280 C.ar    0  <0>0        0.0195
     21  C15        8.9190   35.7610   57.5800 C.ar    0  <0>0        0.0039
     22  C14        8.4990   36.7330   56.6960 C.ar    0  <0>0        0.0297
     23  C13        8.2400   38.0170   57.1440 C.ar    0  <0>0        0.1401
     24  C12        8.4030   38.3340   58.4840 C.ar    0  <0>0        0.0297
     25  F1         7.8280   38.9640   56.2740 F       0  <0>0       -0.2042
     26  C11        8.8240   37.3700   59.3760 C.ar    0  <0>0        0.0039
     27  C4        11.8960   33.4180   62.0040 C.ar    0  <0>0        0.0828
     28  C3        13.0450   34.1980   62.0280 C.ar    0  <0>0        0.0191
     29  C2        14.1420   33.7870   62.7590 C.ar    0  <0>0        0.0015
     30  C1        14.0980   32.6010   63.4670 C.ar    0  <0>0        0.0001
     31  C6        12.9560   31.8210   63.4450 C.ar    0  <0>0        0.0015
     32  C5        11.8530   32.2290   62.7210 C.ar    0  <0>0        0.0191
@<TRIPOS>BOND
     1    25    23    1
     2    15    17    1
     3    15    13    1
     4    22    23   ar
     5    22    21   ar
     6    17    12    1
     7    16    13   ar
     8    16    18   ar
     9    23    24   ar
    10    13    11   ar
    11    21    20   ar
    12    12    10    1
    13    18    19   ar
    14    24    26   ar
    15    11    10    1
    16    11    14   ar
    17    10     8   am
    18    20    26   ar
    19    20     4    1
    20    19    14   ar
    21     4     3   ar
    22     4     5   ar
    23     8     7    1
    24     8     9    2
    25     6     7    2
    26     6     3    1
    27     3     2   ar
    28     5     1   ar
    29     2     1   ar
    30     1    27    1
    31    27    28   ar
    32    27    32   ar
    33    28    29   ar
    34    32    31   ar
    35    29    30   ar
    36    31    30   ar
