@<TRIPOS>MOLECULE
ZINC47414096_replica-1.pdb
 21 21 0 0 0
SMALL
GASTEIGER

@<TRIPOS>ATOM
      1  S1         7.9880   38.1400   58.3730 S.O2    0  <0>0        0.0602
      2  O2         7.1660   38.8520   59.2880 O.2     0  <0>0       -0.1530
      3  O3         8.8770   38.7950   57.4780 O.2     0  <0>0       -0.1530
      4  C6         8.9680   37.0330   59.3320 C.ar    0  <0>0        0.1221
      5  C5         9.3460   37.3790   60.6150 C.ar    0  <0>0        0.0230
      6  C4        10.1140   36.5120   61.3690 C.ar    0  <0>0        0.0383
      7  C3        10.5060   35.2930   60.8360 C.ar    0  <0>0        0.1386
      8  C8        10.1310   34.9500   59.5450 C.ar    0  <0>0        0.0383
      9  C7         9.3580   35.8180   58.7980 C.ar    0  <0>0        0.0230
     10  O1        11.2610   34.4390   61.5740 O.3     0  <0>0       -0.4755
     11  C2        12.2970   35.0140   62.3740 C.3     0  <0>0        0.2055
     12  C1        13.5770   34.1900   62.2210 C.3     0  <0>0        0.0512
     13  N1         6.9740   37.2180   57.4440 N.3     0  <0>0       -0.1785
     14  H10        6.2750   36.6930   57.8630 H       0  <0>0        0.1488
     15  C9         7.1340   37.1960   55.9880 C.3     0  <0>0        0.1033
     16  C10        6.3060   36.0490   55.4020 C.3     0  <0>0        0.0843
     17  S2         5.1870   35.4000   56.6740 S.3     0  <0>0       -0.0399
     18  C11        3.5530   36.0060   56.1710 C.3     0  <0>0        0.4438
     19  F1         2.8410   36.4210   57.3010 F       0  <0>0       -0.1602
     20  F2         3.7070   37.0870   55.2950 F       0  <0>0       -0.1602
     21  F3         2.8530   34.9810   55.5280 F       0  <0>0       -0.1602
@<TRIPOS>BOND
     1    20    18    1
     2    16    15    1
     3    16    17    1
     4    21    18    1
     5    15    13    1
     6    18    17    1
     7    18    19    1
     8    13    14    1
     9    13     1    1
    10     3     1    2
    11     1     2    2
    12     1     4    1
    13     9     4   ar
    14     9     8   ar
    15     4     5   ar
    16     8     7   ar
    17     5     6   ar
    18     7     6   ar
    19     7    10    1
    20    10    11    1
    21    12    11    1
