@<TRIPOS>MOLECULE
ZINC40753451_replica-1.pdb
 26 29 0 0 0
SMALL
GASTEIGER

@<TRIPOS>ATOM
      1  N1         5.5970   34.4240   58.2080 N.pl3   0  <0>0       -0.2697
      2  C8         4.4280   33.8370   58.6480 C.3     0  <0>0        0.1694
      3  C9         3.9930   32.5340   58.8200 C.2     0  <0>0        0.0994
      4  N2         2.7780   32.2930   59.2730 N.2     0  <0>0       -0.2447
      5  C10        1.9330   33.2640   59.5790 C.2     0  <0>0        0.1009
      6  C11        2.2760   34.5780   59.4400 C.2     0  <0>0        0.0503
      7  C12        3.5540   34.8960   58.9640 C.2     0  <0>0        0.1360
      8  N3         4.2080   36.0450   58.7110 N.2     0  <0>0       -0.3890
      9  C13        5.4150   35.7790   58.2700 C.2     0  <0>0        0.1880
     10  C7         6.8080   33.7280   57.7640 C.3     0  <0>0        0.1250
     11  C4         7.9490   34.0660   58.6870 C.ar    0  <0>0        0.0526
     12  C3         7.8950   33.6940   60.0200 C.ar    0  <0>0        0.1399
     13  C2         8.9450   34.0050   60.8670 C.ar    0  <0>0        0.0295
     14  F4         6.8190   33.0290   60.4930 F       0  <0>0       -0.2044
     15  C1        10.0470   34.6860   60.3840 C.ar    0  <0>0        0.0046
     16  C6        10.1010   35.0570   59.0540 C.ar    0  <0>0        0.0295
     17  C5         9.0530   34.7470   58.2040 C.ar    0  <0>0        0.1399
     18  F1         9.1070   35.1100   56.9040 F       0  <0>0       -0.2044
     19  C14        6.4240   36.7900   57.8940 C.ar    0  <0>0        0.0987
     20  C19        6.6620   37.0800   56.5470 C.ar    0  <0>0        0.1460
     21  C18        7.6040   38.0320   56.2050 C.ar    0  <0>0        0.0299
     22  F2         5.9700   36.4340   55.5840 F       0  <0>0       -0.2040
     23  C17        8.3180   38.6890   57.1890 C.ar    0  <0>0        0.0046
     24  C16        8.0930   38.4040   58.5250 C.ar    0  <0>0        0.0299
     25  C15        7.1510   37.4600   58.8840 C.ar    0  <0>0        0.1460
     26  F3         6.9320   37.1830   60.1880 F       0  <0>0       -0.2040
@<TRIPOS>BOND
     1    22    20    1
     2    21    20   ar
     3    21    23   ar
     4    20    19   ar
     5    18    17    1
     6    23    24   ar
     7    10     1    1
     8    10    11    1
     9    19     9    1
    10    19    25   ar
    11    17    11   ar
    12    17    16   ar
    13     1     9    1
    14     1     2    1
    15     9     8    2
    16    24    25   ar
    17     2     3    1
    18     2     7    1
    19    11    12   ar
    20     8     7    2
    21     3     4    2
    22    25    26    1
    23     7     6    1
    24    16    15   ar
    25     4     5    1
    26     6     5    2
    27    12    14    1
    28    12    13   ar
    29    15    13   ar
