@<TRIPOS>MOLECULE
ZINC37780085_replica-1.pdb
 21 22 0 0 0
SMALL
GASTEIGER

@<TRIPOS>ATOM
      1  C5         8.5410   36.7580   59.3440 C.ar    0  <0>0        0.1515
      2  C6         8.5740   38.1400   59.2590 C.ar    0  <0>0        0.0382
      3  C7         8.5150   38.7590   58.0240 C.ar    0  <0>0        0.0032
      4  C8         8.4220   38.0020   56.8710 C.ar    0  <0>0        0.0015
      5  C9         8.3900   36.6230   56.9460 C.ar    0  <0>0        0.0174
      6  C10        8.4540   35.9940   58.1820 C.ar    0  <0>0        0.0791
      7  N1         8.4260   34.5970   58.2610 N.pl3   0  <0>0       -0.3297
      8  H16        9.2560   34.0960   58.2810 H       0  <0>0        0.1469
      9  C11        7.1430   33.8920   58.3120 C.3     0  <0>0        0.0965
     10  C16        7.1140   32.8030   57.2380 C.3     0  <0>0        0.1330
     11  C15        8.2530   31.8110   57.4880 C.3     0  <0>0        0.0313
     12  C14        8.0790   31.1710   58.8670 C.3     0  <0>0        0.0026
     13  C13        8.1060   32.2600   59.9410 C.3     0  <0>0        0.0019
     14  C12        6.9680   33.2510   59.6920 C.3     0  <0>0        0.0220
     15  O2         7.2780   33.4000   55.9500 O.3     0  <0>0       -0.3519
     16  C17        6.1040   34.0480   55.4570 C.3     0  <0>0        0.1741
     17  O1         8.5990   36.1470   60.5580 O.3     0  <0>0       -0.4742
     18  C4         9.4740   36.7200   61.5310 C.3     0  <0>0        0.2053
     19  C2        10.8550   36.0730   61.4190 C.3     0  <0>0        0.0438
     20  C1        11.6350   36.3070   62.7140 C.3     0  <0>0        0.0038
     21  C3        10.6960   34.5690   61.1840 C.3     0  <0>0        0.0038
@<TRIPOS>BOND
     1    16    15    1
     2    15    10    1
     3     4     5   ar
     4     4     3   ar
     5     5     6   ar
     6    10    11    1
     7    10     9    1
     8    11    12    1
     9     3     2   ar
    10     6     7    1
    11     6     1   ar
    12     7     8    1
    13     7     9    1
    14     9    14    1
    15    12    13    1
    16     2     1   ar
    17     1    17    1
    18    14    13    1
    19    17    18    1
    20    21    19    1
    21    19    18    1
    22    19    20    1
