@<TRIPOS>MOLECULE
ZINC37630035_replica-1.pdb
 20 20 0 0 0
SMALL
GASTEIGER

@<TRIPOS>ATOM
      1  C5        10.7250   32.5490   62.3550 C.ar    0  <0>0        0.0757
      2  C6        11.1810   33.8310   62.0280 C.ar    0  <0>0        0.0062
      3  C7        10.4260   34.2940   61.0060 C.ar    0  <0>0        0.0527
      4  N1         9.5230   33.3400   60.6950 N.ar    0  <0>0       -0.2556
      5  N2         9.7340   32.2520   61.5530 N.ar    0  <0>0       -0.1743
      6  C4        11.2810   31.6620   63.4390 C.3     0  <0>0        0.0473
      7  C3        12.5020   30.9090   62.9050 C.3     0  <0>0        0.0063
      8  C2        13.1450   30.1110   64.0410 C.3     0  <0>0        0.0004
      9  C1        12.0950   29.2000   64.6800 C.3     0  <0>0        0.0000
     10  C16       12.3130   34.5660   62.6990 C.3     0  <0>0        0.0288
     11  C17       13.6260   34.2370   61.9870 C.3     0  <0>0        0.0048
     12  C18       14.6580   33.7620   63.0130 C.3     0  <0>0        0.0004
     13  C8         8.5070   33.4230   59.6440 C.3     0  <0>0        0.1270
     14  C9         7.1860   33.9020   60.2480 C.3     0  <0>0        0.0263
     15  C10        6.4390   34.7610   59.2260 C.3     0  <0>0        0.0021
     16  C11        5.4320   35.6560   59.9490 C.3     0  <0>0        0.0001
     17  C12       10.5680   35.6350   60.3330 C.3     0  <0>0        0.0451
     18  C13       10.1060   36.7360   61.2910 C.3     0  <0>0        0.0063
     19  C14        8.7070   37.2060   60.8880 C.3     0  <0>0        0.0004
     20  C15        8.7800   37.9330   59.5430 C.3     0  <0>0        0.0000
@<TRIPOS>BOND
     1    15    16    1
     2    15    14    1
     3    20    19    1
     4    13    14    1
     5    13     4    1
     6    17     3    1
     7    17    18    1
     8     4     3   ar
     9     4     5   ar
    10    19    18    1
    11     3     2   ar
    12     5     1   ar
    13    11    10    1
    14    11    12    1
    15     2     1   ar
    16     2    10    1
    17     1     6    1
    18     7     6    1
    19     7     8    1
    20     8     9    1
