@<TRIPOS>MOLECULE
ZINC37624853_replica-1.pdb
 24 25 0 0 0
SMALL
GASTEIGER

@<TRIPOS>ATOM
      1  C9        -1.8760   30.4260   55.5880 C.2     0  <0>0        0.2257
      2  O1        -3.0650   30.6220   55.7770 O.2     0  <0>0       -0.2835
      3  C5        -0.8790   31.2260   56.3070 C.ar    0  <0>0        0.0930
      4  C4        -0.3310   30.9320   57.5390 C.ar    0  <0>0       -0.0060
      5  C3         0.5710   31.9550   57.8430 C.ar    0  <0>0       -0.0132
      6  C19       -0.6450   29.7310   58.3950 C.3     0  <0>0        0.0323
      7  C6         0.5550   32.8410   56.8180 C.ar    0  <0>0        0.0293
      8  N1        -0.3170   32.4060   55.8750 N.ar    0  <0>0       -0.3544
      9  H1        -0.5160   32.8530   55.0380 H       0  <0>0        0.1657
     10  C2         1.4070   32.0590   59.0920 C.3     0  <0>0        0.0272
     11  C1         0.6500   32.8700   60.1460 C.3     0  <0>0        0.0051
     12  C7         1.3760   34.1020   56.7360 C.3     0  <0>0        0.0432
     13  C8         0.5540   35.2810   57.2600 C.3     0  <0>0        0.0066
     14  C10       -1.4450   29.3910   54.6420 C.ar    0  <0>0        0.0930
     15  N2        -0.5900   28.3480   54.9130 N.ar    0  <0>0       -0.3544
     16  C13       -0.4380   27.6080   53.7860 C.ar    0  <0>0        0.0293
     17  H2        -0.1670   28.1710   55.7680 H       0  <0>0        0.1657
     18  C12       -1.1760   28.1630   52.7950 C.ar    0  <0>0       -0.0132
     19  C11       -1.8180   29.2900   53.3170 C.ar    0  <0>0       -0.0060
     20  C18       -2.7440   30.2180   52.5740 C.3     0  <0>0        0.0323
     21  C14        0.4150   26.3730   53.6570 C.3     0  <0>0        0.0432
     22  C15        0.5000   25.6670   55.0130 C.3     0  <0>0        0.0066
     23  C16       -1.2850   27.6570   51.3800 C.3     0  <0>0        0.0272
     24  C17       -1.5080   26.1420   51.3950 C.3     0  <0>0        0.0051
@<TRIPOS>BOND
     1    23    24    1
     2    23    18    1
     3    20    19    1
     4    18    19   ar
     5    18    16   ar
     6    19    14   ar
     7    21    16    1
     8    21    22    1
     9    16    15   ar
    10    14    15   ar
    11    14     1    1
    12    15    17    1
    13     9     8    1
    14     1     2    2
    15     1     3    1
    16     8     3   ar
    17     8     7   ar
    18     3     4   ar
    19    12     7    1
    20    12    13    1
    21     7     5   ar
    22     4     5   ar
    23     4     6    1
    24     5    10    1
    25    10    11    1
