@<TRIPOS>MOLECULE
ZINC36703499_replica-1.pdb
 22 23 0 0 0
SMALL
GASTEIGER

@<TRIPOS>ATOM
      1  N1        11.5860   34.3390   61.6500 N.am    0  <0>0       -0.3025
      2  C8        11.1200   35.6030   61.6150 C.2     0  <0>0        0.2459
      3  O1        11.4130   36.3860   62.4990 O.2     0  <0>0       -0.2701
      4  H16       11.3530   33.7160   60.9450 H       0  <0>0        0.1497
      5  C9        10.2590   36.0330   60.5130 C.2     0  <0>0        0.0577
      6  C10        9.9390   35.1660   59.5280 C.2     0  <0>0        0.0048
      7  C11        9.0750   35.5980   58.4200 C.ar    0  <0>0        0.0034
      8  C16        8.4950   34.6500   57.5710 C.ar    0  <0>0        0.0402
      9  C15        7.6810   35.0600   56.5340 C.ar    0  <0>0        0.1764
     10  C14        7.4450   36.4200   56.3290 C.ar    0  <0>0        0.1764
     11  O2         7.0040   34.3530   55.5830 O.3     0  <0>0       -0.4346
     12  C13        8.0230   37.3630   57.1690 C.ar    0  <0>0        0.0402
     13  O3         6.6220   36.5610   55.2500 O.3     0  <0>0       -0.4346
     14  C12        8.8330   36.9600   58.2090 C.ar    0  <0>0        0.0033
     15  C17        6.0280   35.2650   55.0470 C.3     0  <0>0        0.4294
     16  C2        12.4490   33.9080   62.7530 C.3     0  <0>0        0.0719
     17  C1        12.2040   32.4250   63.0420 C.3     0  <0>0        0.0213
     18  C3        13.9140   34.1170   62.3670 C.3     0  <0>0        0.0196
     19  C4        14.7900   33.1270   63.1380 C.3     0  <0>0        0.0017
     20  C5        15.4420   33.8390   64.3250 C.3     0  <0>0        0.0001
     21  C6        15.6840   32.8340   65.4530 C.3     0  <0>0        0.0000
     22  C7        16.7760   34.4450   63.8870 C.3     0  <0>0        0.0000
@<TRIPOS>BOND
     1    15    13    1
     2    15    11    1
     3    13    10    1
     4    11     9    1
     5    10     9   ar
     6    10    12   ar
     7     9     8   ar
     8    12    14   ar
     9     8     7   ar
    10    14     7   ar
    11     7     6    1
    12     6     5    2
    13     5     2    1
    14     4     1    1
    15     2     1   am
    16     2     3    2
    17     1    16    1
    18    18    16    1
    19    18    19    1
    20    16    17    1
    21    19    20    1
    22    22    20    1
    23    20    21    1
