@<TRIPOS>MOLECULE
ZINC53494081_replica-1.pdb
 22 23 0 0 0
SMALL
GASTEIGER

@<TRIPOS>ATOM
      1  N1        -0.2460   28.6950   54.6420 N.pl3   0  <0>0       -0.3760
      2  H25        0.7620   28.7530   54.6040 H       0  <0>0        0.1277
      3  C2        -0.6450   27.8580   55.7810 C.3     0  <0>0        0.0726
      4  C1         0.6020   27.3970   56.5370 C.3     0  <0>0        0.0215
      5  C3        -0.7240   28.1280   53.4560 C.ar    0  <0>0        0.0311
      6  C8        -0.3830   26.8300   53.1240 C.ar    0  <0>0        0.0087
      7  C7        -0.8600   26.2690   51.9540 C.ar    0  <0>0       -0.0207
      8  C6        -1.6690   27.0080   51.1120 C.ar    0  <0>0       -0.0042
      9  C9        -0.4930   24.8530   51.5940 C.3     0  <0>0        0.0311
     10  C5        -2.0060   28.3080   51.4420 C.ar    0  <0>0        0.0009
     11  C4        -1.5330   28.8690   52.6140 C.ar    0  <0>0        0.0130
     12  C10       -0.8090   30.0420   54.8020 C.3     0  <0>0        0.0718
     13  C11       -1.9150   30.0100   55.8600 C.3     0  <0>0        0.0213
     14  C12        0.2920   31.0060   55.2460 C.3     0  <0>0        0.0872
     15  N2        -0.3110   32.2790   55.6660 N.3     0  <0>0       -0.2920
     16  H19       -0.1070   33.0110   55.0030 H       0  <0>0        0.1236
     17  C13        0.1330   32.6520   57.0160 C.3     0  <0>0        0.1022
     18  C14        1.0560   33.8410   56.9310 C.ar    0  <0>0        0.0232
     19  S1         2.6870   33.9490   56.2140 S.2     0  <0>0       -0.0894
     20  C17        3.0000   35.6720   56.5590 C.ar    0  <0>0        0.0352
     21  C16        1.8610   36.0420   57.1930 C.ar    0  <0>0        0.0072
     22  C15        0.8640   35.1030   57.3830 C.ar    0  <0>0        0.0041
@<TRIPOS>BOND
     1     8    10   ar
     2     8     7   ar
     3    10    11   ar
     4     9     7    1
     5     7     6   ar
     6    11     5   ar
     7     6     5   ar
     8     5     1    1
     9     2     1    1
    10     1    12    1
    11     1     3    1
    12    12    14    1
    13    12    13    1
    14    16    15    1
    15    14    15    1
    16    15    17    1
    17     3     4    1
    18    19    20   ar
    19    19    18   ar
    20    20    21   ar
    21    18    17    1
    22    18    22   ar
    23    21    22   ar
