@<TRIPOS>MOLECULE
ZINC65331145_replica-1.pdb
 27 30 0 0 0
SMALL
GASTEIGER

@<TRIPOS>ATOM
      1  N1         5.1470   36.2490   59.3790 N.ar    0  <0>0       -0.2162
      2  C7         6.3290   35.9610   58.7970 C.ar    0  <0>0        0.1333
      3  C8         7.1940   36.9830   59.0890 C.ar    0  <0>0        0.0347
      4  C9         6.5160   37.9080   59.8680 C.ar    0  <0>0        0.1194
      5  N2         5.2870   37.4800   60.0420 N.ar    0  <0>0       -0.1627
      6  C10        8.6170   36.9960   58.5930 C.3     0  <0>0        0.0580
      7  C11        8.6750   36.2240   57.2710 C.3     0  <0>0        0.0943
      8  C12        7.8790   34.9530   57.3430 C.2     0  <0>0        0.2278
      9  O1         8.2940   33.9700   56.7650 O.2     0  <0>0       -0.2747
     10  N3         6.7190   34.8650   58.0280 N.am    0  <0>0       -0.2695
     11  H10        6.1730   34.0650   57.9860 H       0  <0>0        0.1562
     12  C13        9.5150   36.3350   59.6070 C.ar    0  <0>0       -0.0178
     13  C18        9.8160   36.9850   60.7900 C.ar    0  <0>0       -0.0040
     14  C17       10.6370   36.3770   61.7220 C.ar    0  <0>0        0.0035
     15  C16       11.1630   35.1240   61.4670 C.ar    0  <0>0        0.0714
     16  C15       10.8650   34.4780   60.2810 C.ar    0  <0>0        0.0035
     17  C14       10.0420   35.0830   59.3520 C.ar    0  <0>0       -0.0040
     18  C19       12.0600   34.4630   62.4810 C.3     0  <0>0        0.4186
     19  F1        13.2830   34.1420   61.8820 F       0  <0>0       -0.1659
     20  F2        12.2800   35.3380   63.5510 F       0  <0>0       -0.1659
     21  F3        11.4500   33.2960   62.9520 F       0  <0>0       -0.1659
     22  C4         3.9850   35.4650   59.3270 C.ar    0  <0>0        0.0842
     23  C3         3.9030   34.2940   60.0680 C.ar    0  <0>0        0.0192
     24  C2         2.7570   33.5250   60.0150 C.ar    0  <0>0        0.0015
     25  C1         1.6930   33.9200   59.2250 C.ar    0  <0>0        0.0001
     26  C6         1.7730   35.0860   58.4860 C.ar    0  <0>0        0.0015
     27  C5         2.9160   35.8600   58.5350 C.ar    0  <0>0        0.0192
@<TRIPOS>BOND
     1     9     8    2
     2     7     8    1
     3     7     6    1
     4     8    10   am
     5    11    10    1
     6    10     2    1
     7    26    27   ar
     8    26    25   ar
     9    27    22   ar
    10     6     3    1
    11     6    12    1
    12     2     3   ar
    13     2     1   ar
    14     3     4   ar
    15    25    24   ar
    16    22     1    1
    17    22    23   ar
    18    17    12   ar
    19    17    16   ar
    20     1     5   ar
    21    12    13   ar
    22     4     5   ar
    23    24    23   ar
    24    16    15   ar
    25    13    14   ar
    26    15    14   ar
    27    15    18    1
    28    19    18    1
    29    18    21    1
    30    18    20    1
