@<TRIPOS>MOLECULE
ZINC22204068_replica-1.pdb
 20 20 0 0 0
SMALL
GASTEIGER

@<TRIPOS>ATOM
      1  C7        -1.3730   28.9780   53.4470 C.2     0  <0>0        0.2052
      2  C8        -1.9950   28.7200   52.2280 C.3     0  <0>0        0.1742
      3  C9        -1.7320   27.5140   51.5770 C.2     0  <0>0        0.0547
      4  C10       -0.8560   26.6130   52.1800 C.2     0  <0>0        0.1085
      5  C11       -0.2720   26.9440   53.3930 C.2     0  <0>0        0.2000
      6  N1        -0.5400   28.0900   53.9840 N.2     0  <0>0       -0.3857
      7 Cl          0.8240   25.8300   54.1480 Cl      0  <0>0       -0.0471
      8 Cl         -0.4970   25.0960   51.4190 Cl      0  <0>0       -0.0776
      9 Cl         -3.0810   29.8790   51.5300 Cl      0  <0>0       -0.1009
     10  C6        -1.6390   30.2510   54.1520 C.2     0  <0>0        0.3687
     11  O2        -0.8300   31.1550   54.0970 O.2     0  <0>0       -0.2423
     12  O1        -2.7790   30.4080   54.8510 O.3     0  <0>0       -0.4439
     13  C5        -3.0940   29.3870   55.8350 C.3     0  <0>0        0.2088
     14  C4        -2.0740   29.4440   56.9730 C.3     0  <0>0        0.0475
     15  C3        -1.6640   28.0220   57.3620 C.3     0  <0>0        0.0038
     16  C2        -2.0420   27.7630   58.8220 C.3     0  <0>0        0.0001
     17  C1        -3.0940   26.6550   58.8870 C.3     0  <0>0        0.0000
     18  N2        -2.3330   27.2160   50.3560 N.pl3   0  <0>0       -0.3582
     19  H12       -3.3750   27.5130   50.1690 H       0  <0>0        0.1421
     20  H13       -1.7650   26.6840   49.5780 H       0  <0>0        0.1421
@<TRIPOS>BOND
     1    20    18    1
     2    19    18    1
     3    18     3    1
     4     8     4    1
     5     9     2    1
     6     3     4    2
     7     3     2    1
     8     4     5    1
     9     2     1    1
    10     5     6    2
    11     5     7    1
    12     1     6    2
    13     1    10    1
    14    11    10    2
    15    10    12    1
    16    12    13    1
    17    13    14    1
    18    14    15    1
    19    15    16    1
    20    16    17    1
