@<TRIPOS>MOLECULE
ZINC38705081_replica-1.pdb
 36 40 0 0 0
SMALL
GASTEIGER

@<TRIPOS>ATOM
      1  C9         5.0900   35.9310   58.0920 C.3     0  <0>0        0.1242
      2  C10        6.3510   36.0720   57.2820 C.ar    0  <0>0        0.0408
      3  C11        7.7470   36.1560   57.2800 C.ar    0  <0>0        0.1027
      4  N1         8.1330   36.2800   56.0250 N.ar    0  <0>0       -0.1727
      5  N2         7.1180   36.2810   55.2360 N.ar    0  <0>0       -0.2716
      6  H2         7.1640   36.3610   54.2690 H       0  <0>0        0.1891
      7  C12        5.9660   36.1540   55.9580 C.ar    0  <0>0        0.1266
      8  C13        4.5020   36.0710   55.8920 C.2     0  <0>0        0.2666
      9  O1         3.8510   36.1140   54.8650 O.2     0  <0>0       -0.2683
     10  N3         3.9820   35.9420   57.1270 N.am    0  <0>0       -0.2647
     11  C22        8.6320   36.1150   58.4700 C.ar    0  <0>0        0.0488
     12  C27        9.3540   34.9570   58.7690 C.ar    0  <0>0        0.1345
     13  C26       10.1840   34.9290   59.8780 C.ar    0  <0>0        0.0324
     14  C25       10.2860   36.0410   60.6930 C.ar    0  <0>0       -0.0192
     15  C24        9.5680   37.1870   60.4040 C.ar    0  <0>0       -0.0083
     16  C28       11.1840   36.0030   61.9030 C.3     0  <0>0        0.0311
     17  C23        8.7430   37.2300   59.2980 C.ar    0  <0>0       -0.0177
     18  C29        7.9640   38.4820   58.9870 C.3     0  <0>0        0.0312
     19  O2         9.2480   33.8630   57.9700 O.3     0  <0>0       -0.5055
     20  H23        8.8580   33.0930   58.4070 H       0  <0>0        0.2922
     21  C6         5.1040   34.6300   58.8510 C.ar    0  <0>0       -0.0000
     22  C5         5.4390   33.4550   58.2050 C.ar    0  <0>0       -0.0027
     23  C4         5.4540   32.2620   58.9010 C.ar    0  <0>0       -0.0045
     24  C3         5.1330   32.2420   60.2460 C.ar    0  <0>0       -0.0222
     25  C8         4.7930   33.4160   60.8930 C.ar    0  <0>0       -0.0045
     26  C7         4.7830   34.6110   60.1960 C.ar    0  <0>0       -0.0027
     27  C2         5.1490   30.9400   61.0060 C.3     0  <0>0        0.0264
     28  C1         3.9810   30.0670   60.5450 C.3     0  <0>0        0.0050
     29  C14        2.5590   35.8300   57.4530 C.3     0  <0>0        0.1210
     30  C15        2.1930   34.3760   57.6100 C.ar    0  <0>0       -0.0023
     31  C20        2.3720   33.5010   56.5560 C.ar    0  <0>0       -0.0029
     32  C19        2.0420   32.1670   56.7010 C.ar    0  <0>0       -0.0045
     33  C18        1.5220   31.7100   57.8980 C.ar    0  <0>0       -0.0219
     34  C17        1.3370   32.5870   58.9500 C.ar    0  <0>0       -0.0045
     35  C21        1.1580   30.2560   58.0550 C.3     0  <0>0        0.0310
     36  C16        1.6720   33.9200   58.8070 C.ar    0  <0>0       -0.0029
@<TRIPOS>BOND
     1     6     5    1
     2     9     8    2
     3     5     7   ar
     4     5     4   ar
     5     8     7    1
     6     8    10   am
     7     7     2   ar
     8     4     3   ar
     9    31    32   ar
    10    31    30   ar
    11    32    33   ar
    12    10    29    1
    13    10     1    1
    14     3     2   ar
    15     3    11    1
    16     2     1    1
    17    29    30    1
    18    30    36   ar
    19    33    35    1
    20    33    34   ar
    21    19    20    1
    22    19    12    1
    23     1    21    1
    24    22    21   ar
    25    22    23   ar
    26    11    12   ar
    27    11    17   ar
    28    12    13   ar
    29    36    34   ar
    30    21    26   ar
    31    23    24   ar
    32    18    17    1
    33    17    15   ar
    34    13    14   ar
    35    26    25   ar
    36    24    25   ar
    37    24    27    1
    38    15    14   ar
    39    28    27    1
    40    14    16    1
