@<TRIPOS>MOLECULE
ZINC65815953_replica-1.pdb
 22 23 0 0 0
SMALL
GASTEIGER

@<TRIPOS>ATOM
      1  N1         6.5660   37.0600   58.9220 N.am    0  <0>0       -0.2601
      2  C9         6.2350   37.8780   60.0900 C.3     0  <0>0        0.1167
      3  C10        5.6420   36.2300   58.3950 C.2     0  <0>0        0.3079
      4  O1         5.9170   35.5510   57.4250 O.2     0  <0>0       -0.2522
      5  N2         4.4150   36.1560   58.9450 N.am    0  <0>0       -0.2668
      6  H12        4.2170   36.6420   59.7600 H       0  <0>0        0.1565
      7  C2         7.9010   37.1410   58.3240 C.3     0  <0>0        0.1003
      8  C1         8.2490   38.6050   58.0510 C.3     0  <0>0        0.0265
      9  C3         8.9130   36.5520   59.2730 C.ar    0  <0>0        0.0064
     10  C8         9.4320   35.2910   59.0370 C.ar    0  <0>0        0.0552
     11  C7        10.3650   34.7530   59.9060 C.ar    0  <0>0        0.0111
     12 Cl          8.9180   34.3880   57.6460 Cl      0  <0>0       -0.0825
     13  C6        10.7690   35.4720   61.0160 C.ar    0  <0>0        0.0008
     14  C5        10.2460   36.7290   61.2540 C.ar    0  <0>0       -0.0002
     15  C4         9.3180   37.2690   60.3830 C.ar    0  <0>0       -0.0018
     16  C11        3.4220   35.3750   58.3380 C.ar    0  <0>0        0.0710
     17  C15        3.2710   34.0380   58.6800 C.ar    0  <0>0        0.1145
     18  N3         2.3340   33.3020   58.1160 N.ar    0  <0>0       -0.2311
     19  C14        1.5170   33.7950   57.2040 C.ar    0  <0>0        0.1384
     20  C13        1.6100   35.1180   56.8070 C.ar    0  <0>0        0.0321
     21 Cl          0.3090   32.7700   56.4940 Cl      0  <0>0       -0.0613
     22  C12        2.5760   35.9280   57.3790 C.ar    0  <0>0        0.0187
@<TRIPOS>BOND
     1    21    19    1
     2    20    19   ar
     3    20    22   ar
     4    19    18   ar
     5    22    16   ar
     6     4     3    2
     7    12    10    1
     8     8     7    1
     9    18    17   ar
    10     7     1    1
    11     7     9    1
    12    16    17   ar
    13    16     5    1
    14     3     1   am
    15     3     5   am
    16     1     2    1
    17     5     6    1
    18    10     9   ar
    19    10    11   ar
    20     9    15   ar
    21    11    13   ar
    22    15    14   ar
    23    13    14   ar
