@<TRIPOS>MOLECULE
ZINC48417804_replica-1.pdb
 27 30 0 0 0
SMALL
GASTEIGER

@<TRIPOS>ATOM
      1  C1         7.6500   31.2430   61.2740 C.3     0  <0>0       -0.0997
      2  N1         7.2770   32.2700   60.2920 N.4     0  <0>0        0.3910
      3  C2         8.3070   33.3110   60.2620 C.3     0  <0>0       -0.0470
      4  C3         8.0010   34.3530   59.2230 C.2     0  <0>0       -0.0109
      5  C4         8.5450   35.6240   59.3450 C.2     0  <0>0        0.0644
      6  C5         8.2190   36.6000   58.3040 C.3     0  <0>0        0.1026
      7  C6         8.7200   37.9050   58.3440 C.2     0  <0>0       -0.0148
      8  C7         8.3930   38.7840   57.3540 C.2     0  <0>0       -0.0038
      9  C8         7.5640   38.3980   56.3030 C.2     0  <0>0        0.0020
     10  C9         7.0570   37.1360   56.2330 C.2     0  <0>0        0.0282
     11  C10        7.3750   36.2010   57.2370 C.2     0  <0>0        0.1169
     12  N2         6.8930   34.9590   57.1960 N.2     0  <0>0       -0.4064
     13  C11        7.1710   34.0610   58.1230 C.2     0  <0>0        0.1189
     14  C12        6.5960   32.7000   58.0180 C.2     0  <0>0       -0.0139
     15  C13        5.6330   32.4090   57.1280 C.2     0  <0>0       -0.0016
     16  C20        7.1480   31.6510   58.9630 C.3     0  <0>0       -0.0469
     17  H17        6.3950   32.6820   60.5570 H       0  <0>0       -0.0788
     18  C14        4.9710   33.4920   56.3790 C.ar    0  <0>0        0.0272
     19  C19        5.3280   33.7470   55.0490 C.ar    0  <0>0        0.1401
     20  C18        4.6980   34.7600   54.3520 C.ar    0  <0>0        0.0296
     21  F1         6.2810   33.0010   54.4480 F       0  <0>0       -0.2042
     22  C17        3.7280   35.5280   54.9690 C.ar    0  <0>0        0.0023
     23  C16        3.3750   35.2850   56.2850 C.ar    0  <0>0        0.0001
     24  C15        3.9890   34.2740   56.9930 C.ar    0  <0>0        0.0022
     25  C21        9.4180   35.9770   60.4810 C.2     0  <0>0        0.3843
     26  O1        10.6260   35.7980   60.4040 O.co2   0  <0>0       -0.2409
     27  O2         8.9340   36.4500   61.5010 O.co2   0  <0>0       -0.2409
@<TRIPOS>BOND
     1    20    22   ar
     2    20    19   ar
     3    21    19    1
     4    22    23   ar
     5    19    18   ar
     6    10     9    2
     7    10    11    1
     8    23    24   ar
     9     9     8    1
    10    18    24   ar
    11    18    15    1
    12    15    14    2
    13    12    11    2
    14    12    13    2
    15    11     6    1
    16     8     7    2
    17    14    13    1
    18    14    16    1
    19    13     4    1
    20     6     7    1
    21     6     5    1
    22    16     2    1
    23     4     5    2
    24     4     3    1
    25     5    25    1
    26     3     2    1
    27     2    17    1
    28     2     1    1
    29    26    25   ar
    30    25    27   ar
