@<TRIPOS>MOLECULE
ZINC10096214_replica-1.pdb
 27 30 0 0 0
SMALL
GASTEIGER

@<TRIPOS>ATOM
      1  N3        -0.3960   32.4210   56.0480 N.am    0  <0>0       -0.2542
      2  C10       -0.9050   31.3530   56.6930 C.2     0  <0>0        0.2327
      3  O1        -0.3640   30.9360   57.6950 O.2     0  <0>0       -0.2743
      4  H6        -0.8290   32.7550   55.2460 H       0  <0>0        0.1577
      5  C9         0.7450   33.0450   56.5300 C.2     0  <0>0        0.2134
      6  S2         2.4570   32.5850   56.3020 S.3     0  <0>0       -0.0537
      7  C8         3.1680   33.9130   57.2430 C.3     0  <0>0        0.1564
      8  C3         4.4830   34.2860   57.5600 C.2     0  <0>0        0.1178
      9  C7         2.0370   34.6250   57.6700 C.2     0  <0>0        0.1274
     10  N1         5.6540   33.7060   57.2220 N.2     0  <0>0       -0.4062
     11  C4         4.6170   35.4470   58.3570 C.3     0  <0>0        0.1250
     12  C2         6.8080   34.1800   57.6000 C.2     0  <0>0        0.1347
     13  C1         8.1840   33.6410   57.3000 C.3     0  <0>0        0.0735
     14  S1         6.3770   35.5790   58.5320 S.3     0  <0>0       -0.0763
     15  C5         3.5240   36.1620   58.7910 C.2     0  <0>0       -0.0062
     16  C6         2.2590   35.7800   58.4680 C.2     0  <0>0        0.0256
     17  N2         0.8440   34.1240   57.2690 N.2     0  <0>0       -0.3838
     18  C11       -2.1440   30.6750   56.1680 C.3     0  <0>0        0.1117
     19  C12       -1.7700   29.7430   55.0460 C.ar    0  <0>0       -0.0131
     20  C17       -2.2050   30.0000   53.7580 C.ar    0  <0>0       -0.0041
     21  C16       -1.8620   29.1440   52.7290 C.ar    0  <0>0       -0.0046
     22  C15       -1.0840   28.0310   52.9860 C.ar    0  <0>0       -0.0225
     23  C14       -0.6480   27.7740   54.2720 C.ar    0  <0>0       -0.0046
     24  C13       -0.9870   28.6320   55.3020 C.ar    0  <0>0       -0.0041
     25  C18       -0.7110   27.0970   51.8630 C.3     0  <0>0        0.0224
     26  C19       -0.4610   25.6970   52.4270 C.3     0  <0>0        0.0047
     27  C20       -1.8520   27.0410   50.8460 C.3     0  <0>0        0.0047
@<TRIPOS>BOND
     1    27    25    1
     2    25    26    1
     3    25    22    1
     4    21    22   ar
     5    21    20   ar
     6    22    23   ar
     7    20    19   ar
     8    23    24   ar
     9    19    24   ar
    10    19    18    1
    11     4     1    1
    12     1     5    1
    13     1     2   am
    14    18     2    1
    15     6     5    1
    16     6     7    1
    17     5    17    2
    18     2     3    2
    19    10     8    2
    20    10    12    2
    21     7     8    1
    22     7     9    1
    23    17     9    2
    24    13    12    1
    25     8    11    1
    26    12    14    1
    27     9    16    1
    28    11    14    1
    29    11    15    1
    30    16    15    2
