@<TRIPOS>MOLECULE
ZINC14270783_replica-1.pdb
 31 34 0 0 0
SMALL
GASTEIGER

@<TRIPOS>ATOM
      1  C11        1.4560   32.5080   56.4320 C.2     0  <0>0        0.2855
      2  O2         1.2770   33.0290   57.5180 O.2     0  <0>0       -0.2664
      3  N1         2.5280   32.8510   55.6900 N.am    0  <0>0       -0.2609
      4  H6         2.6710   32.4360   54.8240 H       0  <0>0        0.1569
      5  C12        3.4010   33.7680   56.1490 C.2     0  <0>0        0.1433
      6  S1         3.3370   35.3770   55.5680 S.2     0  <0>0       -0.0181
      7  N2         4.3230   33.4200   57.0680 N.am    0  <0>0       -0.2659
      8  H7         4.3600   32.5090   57.3980 H       0  <0>0        0.1567
      9  C13        5.2210   34.3630   57.5410 C.2     0  <0>0        0.2160
     10  S2         6.8850   34.7040   56.9860 S.3     0  <0>0       -0.0376
     11  C19        7.2360   36.0180   58.1300 C.2     0  <0>0        0.0610
     12  C14        6.0370   36.1000   58.8730 C.2     0  <0>0        0.1217
     13  C18        8.3150   36.8310   58.3720 C.2     0  <0>0        0.0381
     14  N3         5.0670   35.2310   58.5140 N.2     0  <0>0       -0.3839
     15  C15        6.0000   37.0770   59.8940 C.3     0  <0>0        0.0879
     16  C16        7.0800   37.8860   60.1300 C.2     0  <0>0        0.0110
     17  C17        8.2450   37.7780   59.3800 C.2     0  <0>0        0.1369
     18  F1         9.2970   38.5870   59.6330 F       0  <0>0       -0.2045
     19  C10        0.5080   31.5120   55.9320 C.ar    0  <0>0        0.1987
     20  C9        -0.8540   31.5100   56.1510 C.ar    0  <0>0        0.0454
     21  C8        -1.3650   30.3850   55.4970 C.ar    0  <0>0        0.0408
     22  C7        -0.3100   29.7470   54.9090 C.ar    0  <0>0        0.1455
     23  O1         0.8130   30.4330   55.1820 O.2     0  <0>0       -0.4489
     24  C6        -0.3890   28.5090   54.1100 C.ar    0  <0>0        0.0355
     25  C1         0.2610   27.3510   54.5460 C.ar    0  <0>0        0.0040
     26  C2         0.1850   26.1970   53.7950 C.ar    0  <0>0        0.0123
     27  C3        -0.5320   26.1830   52.6110 C.ar    0  <0>0        0.0682
     28  C4        -1.1780   27.3280   52.1720 C.ar    0  <0>0        0.0683
     29 Cl         -0.6280   24.7230   51.6760 Cl      0  <0>0       -0.0814
     30  C5        -1.1100   28.4890   52.9150 C.ar    0  <0>0        0.0153
     31 Cl         -2.0760   27.3010   50.6870 Cl      0  <0>0       -0.0814
@<TRIPOS>BOND
     1    31    28    1
     2    29    27    1
     3    28    27   ar
     4    28    30   ar
     5    27    26   ar
     6    30    24   ar
     7    26    25   ar
     8    24    25   ar
     9    24    22    1
    10     4     3    1
    11    22    23   ar
    12    22    21   ar
    13    23    19   ar
    14    21    20   ar
    15     6     5    2
    16     3     5    1
    17     3     1   am
    18    19    20   ar
    19    19     1    1
    20     5     7    1
    21     1     2    2
    22    10     9    1
    23    10    11    1
    24     7     8    1
    25     7     9    1
    26     9    14    2
    27    11    13    2
    28    11    12    1
    29    13    17    1
    30    14    12    2
    31    12    15    1
    32    17    18    1
    33    17    16    2
    34    15    16    1
