@<TRIPOS>MOLECULE
ZINC49926212_replica-1.pdb
 24 25 0 0 0
SMALL
GASTEIGER

@<TRIPOS>ATOM
      1  C9        10.8990   35.1960   60.8770 C.3     0  <0>0        0.0899
      2  C8        10.3000   36.5600   61.2240 C.3     0  <0>0        0.0550
      3  C7         8.7920   36.5370   60.9630 C.3     0  <0>0        0.1344
      4  C6         8.5120   37.0850   59.5870 C.ar    0  <0>0        0.0044
      5  C1         8.0770   38.3880   59.4390 C.ar    0  <0>0        0.0004
      6  C2         7.8180   38.8920   58.1780 C.ar    0  <0>0        0.0294
      7  C3         7.9960   38.0900   57.0630 C.ar    0  <0>0        0.1401
      8  C4         8.4320   36.7850   57.2130 C.ar    0  <0>0        0.0294
      9  F4         7.7440   38.5810   55.8290 F       0  <0>0       -0.2042
     10  C5         8.6900   36.2830   58.4750 C.ar    0  <0>0        0.0004
     11  O1         8.1270   37.3390   61.9400 O.3     0  <0>0       -0.3800
     12  H15        8.5880   37.3890   62.7880 H       0  <0>0        0.2108
     13  N1        12.0260   34.9160   61.7690 N.pl3   0  <0>0       -0.3326
     14  H10       12.6970   35.5970   61.9300 H       0  <0>0        0.1468
     15  C10       12.1330   33.6690   62.3890 C.ar    0  <0>0        0.0446
     16  C15       11.0040   32.8790   62.5630 C.ar    0  <0>0        0.0142
     17  C14       11.1140   31.6450   63.1730 C.ar    0  <0>0        0.0051
     18  C13       12.3450   31.1980   63.6180 C.ar    0  <0>0        0.0715
     19  C12       13.4700   31.9850   63.4510 C.ar    0  <0>0        0.0051
     20  C11       13.3680   33.2180   62.8380 C.ar    0  <0>0        0.0142
     21  C16       12.4590   29.8530   64.2860 C.3     0  <0>0        0.4186
     22  F1        11.1830   29.3070   64.4570 F       0  <0>0       -0.1659
     23  F2        13.2300   29.0000   63.4870 F       0  <0>0       -0.1659
     24  F3        13.0730   30.0030   65.5340 F       0  <0>0       -0.1659
@<TRIPOS>BOND
     1     9     7    1
     2     7     8   ar
     3     7     6   ar
     4     8    10   ar
     5     6     5   ar
     6    10     4   ar
     7     5     4   ar
     8     4     3    1
     9     1     2    1
    10     1    13    1
    11     3     2    1
    12     3    11    1
    13    13    14    1
    14    13    15    1
    15    11    12    1
    16    15    16   ar
    17    15    20   ar
    18    16    17   ar
    19    20    19   ar
    20    17    18   ar
    21    19    18   ar
    22    23    21    1
    23    18    21    1
    24    21    22    1
    25    21    24    1
