@<TRIPOS>MOLECULE
ZINC13467712_replica-1.pdb
 23 26 0 0 0
SMALL
GASTEIGER

@<TRIPOS>ATOM
      1  N1         7.5600   34.8660   59.9960 N.2     0  <0>0       -0.2242
      2  C7         7.3010   35.3410   58.8010 C.2     0  <0>0        0.1688
      3  N2         6.1540   35.1790   58.0460 N.am    0  <0>0       -0.2165
      4  C8         6.0190   35.7120   56.8370 C.2     0  <0>0        0.2433
      5  O1         5.0170   35.5680   56.1710 O.2     0  <0>0       -0.2733
      6  C9         7.1990   36.5140   56.3550 C.3     0  <0>0        0.1151
      7  S1         8.3520   36.3520   57.7620 S.3     0  <0>0       -0.0722
      8  C10        7.6820   36.5270   54.9210 C.3     0  <0>0        0.0205
      9  C11        7.0880   37.7910   55.5530 C.3     0  <0>0        0.0205
     10  C6         8.7630   35.1330   60.5940 C.ar    0  <0>0        0.0834
     11  C1         9.7810   34.1790   60.5760 C.ar    0  <0>0        0.0215
     12  C2        10.9920   34.4550   61.1760 C.ar    0  <0>0        0.0312
     13  C3        11.1960   35.6730   61.8060 C.ar    0  <0>0        0.1402
     14  C4        10.1870   36.6220   61.8300 C.ar    0  <0>0        0.0312
     15  F2        12.3820   35.9360   62.3960 F       0  <0>0       -0.2042
     16  C5         8.9720   36.3580   61.2300 C.ar    0  <0>0        0.0215
     17  C12        5.0980   34.4210   58.5730 C.ar    0  <0>0        0.0601
     18  C17        4.0830   35.0430   59.2860 C.ar    0  <0>0        0.0176
     19  C16        3.0450   34.2950   59.8050 C.ar    0  <0>0        0.0309
     20  C15        3.0120   32.9240   59.6080 C.ar    0  <0>0        0.1402
     21  C14        4.0270   32.3010   58.9020 C.ar    0  <0>0        0.0309
     22  F1         1.9930   32.1950   60.1110 F       0  <0>0       -0.2042
     23  C13        5.0680   33.0460   58.3820 C.ar    0  <0>0        0.0176
@<TRIPOS>BOND
     1     8     9    1
     2     8     6    1
     3     9     6    1
     4     5     4    2
     5     6     4    1
     6     6     7    1
     7     4     3   am
     8     7     2    1
     9     3    17    1
    10     3     2    1
    11    23    17   ar
    12    23    21   ar
    13    17    18   ar
    14     2     1    2
    15    21    20   ar
    16    18    19   ar
    17    20    19   ar
    18    20    22    1
    19     1    10    1
    20    11    10   ar
    21    11    12   ar
    22    10    16   ar
    23    12    13   ar
    24    16    14   ar
    25    13    14   ar
    26    13    15    1
