@<TRIPOS>MOLECULE
ZINC04933865_replica-1.pdb
 32 36 0 0 0
SMALL
GASTEIGER

@<TRIPOS>ATOM
      1  C10        0.1840   28.9320   56.5080 C.3     0  <0>0        0.1281
      2  C11       -0.4340   29.3880   55.2150 C.ar    0  <0>0        0.0411
      3  C12       -0.8260   29.0680   53.9550 C.ar    0  <0>0        0.0733
      4  N1        -1.3490   30.2050   53.4070 N.ar    0  <0>0       -0.2759
      5  H2        -1.7100   30.2760   52.5090 H       0  <0>0        0.1889
      6  N2        -1.2910   31.1680   54.2570 N.ar    0  <0>0       -0.1683
      7  C13       -0.7480   30.7560   55.3850 C.ar    0  <0>0        0.1536
      8  C14       -0.3390   31.1480   56.7460 C.2     0  <0>0        0.2724
      9  O1        -0.4690   32.2620   57.2140 O.2     0  <0>0       -0.2678
     10  N3         0.1990   30.1010   57.3960 N.am    0  <0>0       -0.2477
     11  C7        -0.6440   27.8310   57.1170 C.ar    0  <0>0        0.0003
     12  C6        -0.0440   26.6470   57.5050 C.ar    0  <0>0       -0.0027
     13  C5        -0.8040   25.6370   58.0640 C.ar    0  <0>0       -0.0045
     14  C4        -2.1640   25.8110   58.2380 C.ar    0  <0>0       -0.0225
     15  C9        -2.7660   26.9920   57.8460 C.ar    0  <0>0       -0.0045
     16  C8        -2.0060   28.0050   57.2910 C.ar    0  <0>0       -0.0027
     17  C2        -2.9930   24.7100   58.8480 C.3     0  <0>0        0.0224
     18  C1        -2.3310   23.3590   58.5690 C.3     0  <0>0        0.0047
     19  C3        -3.0940   24.9260   60.3590 C.3     0  <0>0        0.0047
     20  C15        0.6930   30.1210   58.7030 C.ar    0  <0>0        0.0547
     21  C20        2.0560   30.2640   58.9300 C.ar    0  <0>0        0.0149
     22  C19        2.5400   30.2890   60.2240 C.ar    0  <0>0        0.0013
     23  C18        1.6710   30.1630   61.2920 C.ar    0  <0>0        0.0001
     24  C17        0.3140   30.0150   61.0690 C.ar    0  <0>0        0.0013
     25  C16       -0.1770   29.9950   59.7780 C.ar    0  <0>0        0.0149
     26  C21       -0.7090   27.7460   53.3020 C.ar    0  <0>0        0.0170
     27  C26        0.0130   26.7230   53.9140 C.ar    0  <0>0        0.0038
     28  C25        0.1140   25.4900   53.3050 C.ar    0  <0>0        0.0297
     29  C24       -0.4920   25.2710   52.0780 C.ar    0  <0>0        0.1401
     30  C23       -1.2070   26.2850   51.4610 C.ar    0  <0>0        0.0297
     31  F1        -0.3860   24.0640   51.4810 F       0  <0>0       -0.2042
     32  C22       -1.3180   27.5190   52.0660 C.ar    0  <0>0        0.0038
@<TRIPOS>BOND
     1    30    32   ar
     2    30    29   ar
     3    31    29    1
     4    32    26   ar
     5    29    28   ar
     6     5     4    1
     7    26    27   ar
     8    26     3    1
     9    28    27   ar
    10     4     3   ar
    11     4     6   ar
    12     3     2   ar
    13     6     7   ar
    14     2     7   ar
    15     2     1    1
    16     7     8    1
    17     1    11    1
    18     1    10    1
    19     8     9    2
    20     8    10   am
    21    11    16   ar
    22    11    12   ar
    23    16    15   ar
    24    10    20    1
    25    12    13   ar
    26    15    14   ar
    27    13    14   ar
    28    14    17    1
    29    18    17    1
    30    20    21   ar
    31    20    25   ar
    32    17    19    1
    33    21    22   ar
    34    25    24   ar
    35    22    23   ar
    36    24    23   ar
