@<TRIPOS>MOLECULE
ZINC43521586_replica-1.pdb
 21 23 0 0 0
SMALL
GASTEIGER

@<TRIPOS>ATOM
      1  N1         8.0300   34.6490   59.9510 N.am    0  <0>0       -0.2331
      2  C7         8.7190   35.6940   60.4640 C.2     0  <0>0        0.2415
      3  O1         8.3360   36.8400   60.3140 O.2     0  <0>0       -0.2737
      4  C8         9.9500   35.3920   61.2100 C.3     0  <0>0        0.1511
      5  C9        10.7330   36.3940   61.7770 C.2     0  <0>0       -0.0103
      6  C10       11.8760   36.0550   62.4670 C.2     0  <0>0       -0.0036
      7  C11       12.2530   34.7250   62.5990 C.2     0  <0>0        0.0020
      8  C12       11.4940   33.7180   62.0440 C.2     0  <0>0        0.0284
      9  C13       10.3300   34.0380   61.3420 C.2     0  <0>0        0.1227
     10  N2         9.5520   33.0790   60.7810 N.2     0  <0>0       -0.3934
     11  C14        8.4670   33.3760   60.1320 C.2     0  <0>0        0.1804
     12  C2         6.7960   34.8930   59.1990 C.3     0  <0>0        0.1102
     13  C1         5.8800   35.8150   60.0060 C.3     0  <0>0        0.0274
     14  C3         7.1310   35.5440   57.8820 C.ar    0  <0>0        0.0257
     15  S1         8.3960   35.1060   56.7000 S.2     0  <0>0       -0.0891
     16  C6         8.0660   36.3800   55.4930 C.ar    0  <0>0        0.0352
     17  C5         7.0340   37.0480   56.0670 C.ar    0  <0>0        0.0072
     18  C4         6.5560   36.6190   57.2910 C.ar    0  <0>0        0.0043
     19  C15        7.6550   32.2510   59.5440 C.3     0  <0>0        0.1466
     20  C16        8.4390   31.5970   58.4060 C.3     0  <0>0        0.0266
     21 Cl          7.3150   31.0230   60.8220 Cl      0  <0>0       -0.1059
@<TRIPOS>BOND
     1    16    17   ar
     2    16    15   ar
     3    17    18   ar
     4    15    14   ar
     5    18    14   ar
     6    14    12    1
     7    20    19    1
     8    12     1    1
     9    12    13    1
    10    19    11    1
    11    19    21    1
    12     1    11    1
    13     1     2   am
    14    11    10    2
    15     3     2    2
    16     2     4    1
    17    10     9    2
    18     4     9    1
    19     4     5    1
    20     9     8    1
    21     5     6    2
    22     8     7    2
    23     6     7    1
