@<TRIPOS>MOLECULE
ZINC04266313_replica-1.pdb
 21 22 0 0 0
SMALL
GASTEIGER

@<TRIPOS>ATOM
      1  C9         6.1810   36.4460   57.4950 C.ar    0  <0>0       -0.0010
      2  C10        5.8340   36.3460   56.1640 C.ar    0  <0>0       -0.0010
      3  C11        4.6390   35.7510   55.8000 C.ar    0  <0>0        0.0238
      4  C12        3.7850   35.2510   56.7670 C.ar    0  <0>0        0.1435
      5  C13        4.1180   35.3490   58.1020 C.ar    0  <0>0        0.0340
      6  C14        5.3250   35.9440   58.4760 C.ar    0  <0>0        0.0670
      7  C15        5.6790   36.0450   59.8600 C.1     0  <0>0        0.1002
      8  N1         5.9600   36.1240   60.9580 N.1     0  <0>0       -0.1908
      9  C8         7.4830   37.0950   57.8890 C.3     0  <0>0        0.0944
     10 Br          7.8430   38.6190   56.6990 Br      0  <0>0       -0.0756
     11  C7         8.6180   36.0770   57.7690 C.3     0  <0>0        0.0938
     12 Br          7.8730   34.3150   57.3160 Br      0  <0>0       -0.0756
     13  C4         9.3550   35.9880   59.0810 C.ar    0  <0>0       -0.0108
     14  C3        10.0920   34.8580   59.3840 C.ar    0  <0>0       -0.0034
     15  C2        10.7680   34.7770   60.5870 C.ar    0  <0>0       -0.0003
     16  C1        10.7080   35.8260   61.4860 C.ar    0  <0>0       -0.0000
     17  C6         9.9720   36.9550   61.1820 C.ar    0  <0>0       -0.0003
     18  C5         9.2990   37.0380   59.9770 C.ar    0  <0>0       -0.0034
     19  N2         2.5090   34.6150   56.3700 N.pl3   0  <0>0        0.0577
     20  O1         2.5010   33.4640   55.9720 O.2     0  <0>0       -0.1261
     21  O2         1.4680   35.2410   56.4450 O.2     0  <0>0       -0.1261
@<TRIPOS>BOND
     1     3     2   ar
     2     3     4   ar
     3    20    19    2
     4     2     1   ar
     5    19    21    2
     6    19     4    1
     7    10     9    1
     8     4     5   ar
     9    12    11    1
    10     1     9    1
    11     1     6   ar
    12    11     9    1
    13    11    13    1
    14     5     6   ar
    15     6     7    1
    16    13    14   ar
    17    13    18   ar
    18    14    15   ar
    19     7     8    3
    20    18    17   ar
    21    15    16   ar
    22    17    16   ar
