@<TRIPOS>MOLECULE
ZINC05932584_replica-1.pdb
 23 25 0 0 0
SMALL
GASTEIGER

@<TRIPOS>ATOM
      1  N1         5.2350   34.3270   57.5590 N.am    0  <0>0       -0.2223
      2  C8         6.4040   34.7490   58.0100 C.2     0  <0>0        0.2633
      3  O2         6.6990   34.6810   59.1880 O.2     0  <0>0       -0.2687
      4  C9         7.3350   35.3110   57.0080 C.2     0  <0>0        0.0853
      5  C10        8.5840   35.8140   57.1750 C.2     0  <0>0        0.0112
      6  S1         6.3640   35.1430   55.5170 S.3     0  <0>0       -0.0601
      7  C17        4.9150   34.4000   56.2520 C.2     0  <0>0        0.1250
      8  S2         3.4690   33.9020   55.4810 S.2     0  <0>0       -0.0269
      9  C6         4.3090   33.7840   58.4610 C.ar    0  <0>0        0.0624
     10  C5         4.4770   32.4900   58.9350 C.ar    0  <0>0        0.0155
     11  C4         3.5630   31.9540   59.8200 C.ar    0  <0>0        0.0044
     12  C3         2.4810   32.7040   60.2390 C.ar    0  <0>0        0.0370
     13  C2         2.3110   34.0000   59.7730 C.ar    0  <0>0        0.1400
     14  C7         3.2270   34.5420   58.8840 C.ar    0  <0>0        0.0521
     15  O1         1.2470   34.7370   60.1850 O.3     0  <0>0       -0.4714
     16  C1         0.2310   34.0540   60.9240 C.3     0  <0>0        0.2525
     17  C11        9.1190   36.0190   58.5280 C.ar    0  <0>0        0.0029
     18  C16        9.9480   35.0540   59.1090 C.ar    0  <0>0        0.0297
     19  C15       10.4470   35.2550   60.3820 C.ar    0  <0>0        0.1401
     20  C14       10.1290   36.4090   61.0790 C.ar    0  <0>0        0.0296
     21  F1        11.2480   34.3250   60.9470 F       0  <0>0       -0.2042
     22  C13        9.3100   37.3690   60.5090 C.ar    0  <0>0        0.0023
     23  C12        8.8070   37.1840   59.2380 C.ar    0  <0>0        0.0002
@<TRIPOS>BOND
     1     8     7    2
     2     6     7    1
     3     6     4    1
     4     7     1    1
     5     4     5    2
     6     4     2    1
     7     5    17    1
     8     1     2   am
     9     1     9    1
    10     2     3    2
    11     9    14   ar
    12     9    10   ar
    13    17    18   ar
    14    17    23   ar
    15    14    13   ar
    16    10    11   ar
    17    18    19   ar
    18    23    22   ar
    19    13    15    1
    20    13    12   ar
    21    11    12   ar
    22    15    16    1
    23    19    21    1
    24    19    20   ar
    25    22    20   ar
