@<TRIPOS>MOLECULE
ZINC40840046_replica-1.pdb
 25 26 0 0 0
SMALL
GASTEIGER

@<TRIPOS>ATOM
      1  C10       -1.3790   29.6430   55.9290 C.2     0  <0>0        0.2768
      2  O2        -0.4560   30.4240   56.0360 O.2     0  <0>0       -0.2699
      3  N1        -1.8820   29.0410   57.0250 N.am    0  <0>0       -0.2291
      4  H12       -2.6190   28.4170   56.9390 H       0  <0>0        0.1707
      5  N2        -1.3400   29.3160   58.2860 N.3     0  <0>0       -0.1265
      6  C11       -1.0040   28.3410   59.0750 C.3     0  <0>0        0.1378
      7  C12       -0.8420   26.9790   58.5350 C.ar    0  <0>0       -0.0030
      8  C17        0.1670   26.7070   57.6080 C.ar    0  <0>0       -0.0031
      9  C16        0.3160   25.4290   57.1110 C.ar    0  <0>0       -0.0046
     10  C15       -0.5370   24.4200   57.5200 C.ar    0  <0>0       -0.0225
     11  C14       -1.5420   24.6830   58.4350 C.ar    0  <0>0       -0.0046
     12  C13       -1.6990   25.9540   58.9450 C.ar    0  <0>0       -0.0031
     13  C18       -0.3700   23.0280   56.9690 C.3     0  <0>0        0.0224
     14  C19        0.6580   23.0480   55.8360 C.3     0  <0>0        0.0047
     15  C20        0.1140   22.0940   58.0800 C.3     0  <0>0        0.0047
     16  C8        -1.9630   29.3470   54.5710 C.3     0  <0>0        0.2424
     17  C9        -2.8150   30.5320   54.1130 C.3     0  <0>0        0.0574
     18  O1        -0.9040   29.1310   53.6360 O.3     0  <0>0       -0.4699
     19  C5        -0.7870   27.8800   53.1150 C.ar    0  <0>0        0.1391
     20  C4        -0.0700   26.9080   53.7980 C.ar    0  <0>0        0.0366
     21  C3         0.0480   25.6390   53.2670 C.ar    0  <0>0       -0.0011
     22  C2        -0.5500   25.3350   52.0580 C.ar    0  <0>0       -0.0217
     23  C1        -0.4200   23.9490   51.4810 C.3     0  <0>0        0.0310
     24  C7        -1.2600   26.3040   51.3730 C.ar    0  <0>0       -0.0011
     25  C6        -1.3850   27.5740   51.9020 C.ar    0  <0>0        0.0366
@<TRIPOS>BOND
     1    24    25   ar
     2    24    22   ar
     3    23    22    1
     4    25    19   ar
     5    22    21   ar
     6    19    18    1
     7    19    20   ar
     8    21    20   ar
     9    18    16    1
    10    17    16    1
    11    16     1    1
    12    14    13    1
    13     1     2    2
    14     1     3   am
    15     4     3    1
    16    13    10    1
    17    13    15    1
    18     3     5    1
    19     9    10   ar
    20     9     8   ar
    21    10    11   ar
    22     8     7   ar
    23     5     6    1
    24    11    12   ar
    25     7    12   ar
    26     7     6    1
