@<TRIPOS>MOLECULE
ZINC19911544_replica-1.pdb
 24 27 0 0 0
SMALL
GASTEIGER

@<TRIPOS>ATOM
      1  C3         1.4140   33.8730   59.6600 C.3     0  <0>0        0.1686
      2  C4         0.6800   34.7680   58.6260 C.3     0  <0>0        0.0436
      3  C5         1.7620   35.7020   58.0070 C.3     0  <0>0        0.0038
      4  C6         2.9200   35.5630   59.0020 C.3     0  <0>0        0.0035
      5  C7         2.9030   34.0510   59.2910 C.3     0  <0>0        0.0369
      6  C8         3.8920   33.7170   60.3790 C.3     0  <0>0        0.0035
      7  C9         5.2850   34.2290   59.9660 C.3     0  <0>0        0.0001
      8  C10        5.2560   35.7340   59.7490 C.3     0  <0>0        0.0000
      9  C11        4.2650   36.1100   58.6360 C.3     0  <0>0        0.0001
     10  C12        4.7820   35.6730   57.2760 C.3     0  <0>0        0.0000
     11  C13        6.1410   36.3390   57.0120 C.3     0  <0>0        0.0004
     12  C14        7.1240   35.8630   58.0850 C.3     0  <0>0        0.0073
     13  C15        6.6370   36.3190   59.4580 C.3     0  <0>0        0.0008
     14  C16        6.5350   37.8490   59.4970 C.3     0  <0>0        0.0078
     15  C17        7.8910   38.4970   59.2260 C.3     0  <0>0        0.0645
     16  C18        8.4750   37.9300   57.9520 C.2     0  <0>0        0.1506
     17  O3         8.9030   38.6600   57.0900 O.2     0  <0>0       -0.2961
     18  C19        8.5110   36.4280   57.7810 C.3     0  <0>0        0.0645
     19  C20        7.6250   35.8660   60.5390 C.3     0  <0>0        0.0000
     20  C21        3.1490   33.1860   58.0570 C.3     0  <0>0        0.0036
     21  O2         1.0320   32.4860   59.4950 O.3     0  <0>0       -0.4523
     22  C2         0.6430   31.8260   60.5960 C.2     0  <0>0        0.3174
     23  C1         0.6600   32.5170   61.9350 C.3     0  <0>0        0.1212
     24  O1         0.2790   30.6760   60.5160 O.2     0  <0>0       -0.2501
@<TRIPOS>BOND
     1    11    10    1
     2    11    12    1
     3    17    16    2
     4    10     9    1
     5    18    16    1
     6    18    12    1
     7    16    15    1
     8     3     2    1
     9     3     4    1
    10    20     5    1
    11    12    13    1
    12     2     1    1
    13     9     4    1
    14     9     8    1
    15     4     5    1
    16    15    14    1
    17     5     1    1
    18     5     6    1
    19    13    14    1
    20    13     8    1
    21    13    19    1
    22    21     1    1
    23    21    22    1
    24     8     7    1
    25     7     6    1
    26    24    22    2
    27    22    23    1
