@<TRIPOS>MOLECULE
ZINC01583849_replica-1.pdb
 22 22 0 0 0
SMALL
GASTEIGER

@<TRIPOS>ATOM
      1  O1         9.0980   36.9950   59.6580 O.3     0  <0>0       -0.4716
      2  C8         9.9570   36.2730   60.4260 C.ar    0  <0>0        0.1387
      3  C7        10.4890   36.8260   61.5810 C.ar    0  <0>0        0.0366
      4  C6        11.3600   36.0900   62.3590 C.ar    0  <0>0       -0.0012
      5  C5        11.7030   34.8030   61.9880 C.ar    0  <0>0       -0.0223
      6  C10       11.1730   34.2490   60.8370 C.ar    0  <0>0       -0.0012
      7  C9        10.2960   34.9790   60.0580 C.ar    0  <0>0        0.0366
      8  C3        12.6530   34.0020   62.8390 C.3     0  <0>0        0.0223
      9  C4        14.0420   34.0090   62.1970 C.3     0  <0>0        0.0047
     10  C2        12.1500   32.5610   62.9500 C.3     0  <0>0        0.0044
     11  C1        13.3200   31.6380   63.2940 C.3     0  <0>0        0.0003
     12  C11        8.5120   36.3290   58.5380 C.3     0  <0>0        0.2486
     13  C12        7.0700   36.8100   58.3560 C.3     0  <0>0        0.2123
     14  C13        6.7540   37.8790   59.4040 C.3     0  <0>0        0.0514
     15  O2         6.9130   37.3730   57.0270 O.3     0  <0>0       -0.4484
     16  C14        6.7500   36.5080   56.0140 C.2     0  <0>0        0.3164
     17  O3         7.4850   36.5540   55.0560 O.2     0  <0>0       -0.2501
     18  C15        5.6510   35.4790   56.0710 C.3     0  <0>0        0.0991
     19  C16        4.2970   36.1670   55.8830 C.3     0  <0>0        0.0111
     20  C17        3.4580   35.9980   57.1520 C.3     0  <0>0        0.0006
     21  C18        5.8570   34.4490   54.9590 C.3     0  <0>0        0.0111
     22  C19        4.7380   34.5830   53.9250 C.3     0  <0>0        0.0006
@<TRIPOS>BOND
     1    22    21    1
     2    21    18    1
     3    17    16    2
     4    19    18    1
     5    19    20    1
     6    16    18    1
     7    16    15    1
     8    15    13    1
     9    13    12    1
    10    13    14    1
    11    12     1    1
    12     1     2    1
    13     7     2   ar
    14     7     6   ar
    15     2     3   ar
    16     6     5   ar
    17     3     4   ar
    18     5     4   ar
    19     5     8    1
    20     9     8    1
    21     8    10    1
    22    10    11    1
