@<TRIPOS>MOLECULE
ZINC06187304_replica-1.pdb
 18 19 0 0 0
SMALL
GASTEIGER

@<TRIPOS>ATOM
      1  C3         8.5860   36.2440   58.2390 C.2     0  <0>0        0.1360
      2  C4         8.4730   37.4250   58.9650 C.2     0  <0>0        0.0183
      3  C5         9.1610   37.5860   60.1470 C.3     0  <0>0        0.0895
      4  C6         9.9770   36.5570   60.6230 C.2     0  <0>0        0.1291
      5  C7        10.0890   35.3660   59.8880 C.2     0  <0>0        0.0796
      6  C8         9.3890   35.2140   58.7010 C.2     0  <0>0        0.0535
      7  N1        10.9540   34.5520   60.6020 N.pl3   0  <0>0       -0.2812
      8  H1        11.2450   33.6290   60.3490 H       0  <0>0        0.1551
      9  C9        11.3340   35.2450   61.7170 C.2     0  <0>0        0.2110
     10  N2        10.7590   36.4220   61.7280 N.2     0  <0>0       -0.3836
     11  S1        12.4330   34.6440   62.9560 S.3     0  <0>0       -0.0625
     12  C10       11.9430   32.9030   62.9940 C.3     0  <0>0        0.0879
     13  C11       13.1530   32.0450   63.2580 C.2     0  <0>0       -0.0327
     14  C12       13.0170   30.7520   63.4170 C.2     0  <0>0       -0.0082
     15  C13       14.5210   32.6740   63.3390 C.3     0  <0>0        0.0273
     16  O1         7.9030   36.0970   57.0730 O.2     0  <0>0       -0.4757
     17  C2         8.2680   36.9620   55.9950 C.3     0  <0>0        0.2055
     18  C1         7.0800   37.8570   55.6350 C.3     0  <0>0        0.0512
@<TRIPOS>BOND
     1    18    17    1
     2    17    16    1
     3    16     1    1
     4     1     6    1
     5     1     2    2
     6     6     5    2
     7     2     3    1
     8     5     7    1
     9     5     4    1
    10     3     4    1
    11     8     7    1
    12     7     9    1
    13     4    10    2
    14     9    10    2
    15     9    11    1
    16    11    12    1
    17    12    13    1
    18    13    15    1
    19    13    14    2
