@<TRIPOS>MOLECULE
ZINC40741879_replica-1.pdb
 28 29 0 0 0
SMALL
GASTEIGER

@<TRIPOS>ATOM
      1  C3        -0.1560   29.7630   57.6420 C.ar    0  <0>0        0.1727
      2  C4         0.1180   30.9820   58.2420 C.ar    0  <0>0        0.0338
      3  C5         0.0320   32.1500   57.5080 C.ar    0  <0>0       -0.0397
      4  C6        -0.3280   32.1050   56.1730 C.ar    0  <0>0        0.0083
      5  C7        -0.6030   30.8920   55.5680 C.ar    0  <0>0        0.0942
      6  C8        -0.5110   29.7170   56.2980 C.ar    0  <0>0        0.1831
      7 Cl         -1.0550   30.8410   53.8920 Cl      0  <0>0       -0.0790
      8  C17        0.3300   33.4730   58.1620 C.3     0  <0>0       -0.0541
      9  N1         0.0950   34.5590   57.2010 N.4     0  <0>0        0.3865
     10  H19        0.2870   34.2280   56.2670 H       0  <0>0       -0.0840
     11  H31       -0.8660   34.8590   57.2600 H       0  <0>0       -0.0840
     12  C18        0.9820   35.6890   57.5110 C.3     0  <0>0       -0.0813
     13  C19        2.4340   35.2070   57.5270 C.3     0  <0>0       -0.0233
     14  C20        3.0310   35.3370   56.1240 C.3     0  <0>0       -0.0021
     15  C21        4.3430   36.1180   56.1980 C.3     0  <0>0       -0.0001
     16  C22        3.2970   33.9420   55.5530 C.3     0  <0>0       -0.0001
     17  O1        -0.0710   28.6140   58.3630 O.3     0  <0>0       -0.4724
     18  C2        -1.0700   28.4010   59.3630 C.3     0  <0>0        0.2057
     19  C1        -2.1650   27.4890   58.8050 C.3     0  <0>0        0.0512
     20  O2        -0.7760   28.5230   55.7020 O.3     0  <0>0       -0.4667
     21  C9         0.3390   27.8000   55.1760 C.3     0  <0>0        0.2322
     22  C10       -0.0900   27.0420   53.9460 C.ar    0  <0>0        0.0209
     23  C15       -0.8080   27.6830   52.9540 C.ar    0  <0>0       -0.0049
     24  C14       -1.1970   26.9880   51.8240 C.ar    0  <0>0       -0.0220
     25  C13       -0.8770   25.6490   51.6910 C.ar    0  <0>0       -0.0043
     26  C16       -1.9750   27.6880   50.7400 C.3     0  <0>0        0.0310
     27  C12       -0.1630   25.0070   52.6850 C.ar    0  <0>0       -0.0005
     28  C11        0.2300   25.7030   53.8130 C.ar    0  <0>0       -0.0007
@<TRIPOS>BOND
     1    26    24    1
     2    25    24   ar
     3    25    27   ar
     4    24    23   ar
     5    27    28   ar
     6    23    22   ar
     7    28    22   ar
     8     7     5    1
     9    22    21    1
    10    21    20    1
    11    16    14    1
    12     5     4   ar
    13     5     6   ar
    14    20     6    1
    15    14    15    1
    16    14    13    1
    17     4     3   ar
    18    10     9    1
    19     6     1   ar
    20     9    11    1
    21     9    12    1
    22     9     8    1
    23     3     8    1
    24     3     2   ar
    25    12    13    1
    26     1     2   ar
    27     1    17    1
    28    17    18    1
    29    19    18    1
