@<TRIPOS>MOLECULE
ZINC37101184_replica-1.pdb
 20 20 0 0 0
SMALL
GASTEIGER

@<TRIPOS>ATOM
      1  C7        10.3840   35.4790   60.2240 C.ar    0  <0>0        0.0728
      2  C8        11.2230   34.4910   60.7070 C.ar    0  <0>0        0.0253
      3  C9        11.8460   34.6530   61.9480 C.ar    0  <0>0        0.1044
      4  C10       11.6170   35.8150   62.6930 C.ar    0  <0>0        0.1486
      5  C11       10.7780   36.7960   62.2010 C.ar    0  <0>0        0.0607
      6  C12       10.1670   36.6360   60.9700 C.ar    0  <0>0        0.1553
      7  F1         9.3520   37.6010   60.4920 F       0  <0>0       -0.2028
      8  F2        12.2150   35.9770   63.8940 F       0  <0>0       -0.2039
      9  N1         9.7590   35.3210   58.9810 N.pl3   0  <0>0       -0.3323
     10  H14       10.2560   35.4770   58.1640 H       0  <0>0        0.1468
     11  C2         8.3520   34.9190   58.9160 C.3     0  <0>0        0.0691
     12  C1         8.2400   33.5650   58.2110 C.3     0  <0>0        0.0212
     13  C3         7.5570   35.9670   58.1360 C.3     0  <0>0        0.0195
     14  C4         8.5010   36.7400   57.2130 C.3     0  <0>0        0.0016
     15  C5         8.2120   36.3650   55.7570 C.3     0  <0>0        0.0001
     16  C6         8.2860   38.2420   57.4040 C.3     0  <0>0        0.0001
     17  C13       12.7390   33.6030   62.4700 C.2     0  <0>0        0.3436
     18  O1        13.9380   33.6780   62.2830 O.2     0  <0>0       -0.2448
     19  O2        12.2280   32.5610   63.1530 O.3     0  <0>0       -0.4413
     20  C14       13.0520   31.4000   63.2810 C.3     0  <0>0        0.2560
@<TRIPOS>BOND
     1    15    14    1
     2    14    16    1
     3    14    13    1
     4    13    11    1
     5    10     9    1
     6    12    11    1
     7    11     9    1
     8     9     1    1
     9     1     2   ar
    10     1     6   ar
    11     7     6    1
    12     2     3   ar
    13     6     5   ar
    14     3    17    1
    15     3     4   ar
    16     5     4   ar
    17    18    17    2
    18    17    19    1
    19     4     8    1
    20    19    20    1
