@<TRIPOS>MOLECULE
ZINC49855476_replica-1.pdb
 21 22 0 0 0
SMALL
GASTEIGER

@<TRIPOS>ATOM
      1  C1        -1.5880   29.3500   57.4640 C.3     0  <0>0       -0.0189
      2  C2        -0.2130   28.8600   57.0060 C.3     0  <0>0       -0.0384
      3  C3        -0.3190   28.2950   55.6130 C.ar    0  <0>0       -0.0421
      4  C8        -1.1220   28.9160   54.6750 C.ar    0  <0>0       -0.0066
      5  C7        -1.2170   28.4000   53.3960 C.ar    0  <0>0       -0.0047
      6  C6        -0.5140   27.2580   53.0580 C.ar    0  <0>0       -0.0225
      7  C5         0.2850   26.6340   53.9980 C.ar    0  <0>0       -0.0047
      8  C4         0.3830   27.1530   55.2750 C.ar    0  <0>0       -0.0066
      9  C9        -0.6190   26.6940   51.6640 C.3     0  <0>0        0.0224
     10  C10       -0.8050   25.1770   51.7410 C.3     0  <0>0        0.0047
     11  C11       -1.8180   27.3200   50.9510 C.3     0  <0>0        0.0047
     12  N1         0.7340   29.9830   57.0080 N.4     0  <0>0        0.3892
     13  H17        1.3630   29.8910   57.7920 H       0  <0>0       -0.0838
     14  H28        1.2630   29.9790   56.1490 H       0  <0>0       -0.0838
     15  C12       -0.0070   31.2470   57.1210 C.3     0  <0>0       -0.0510
     16  C13        0.7010   32.1660   58.1190 C.3     0  <0>0        0.0941
     17  O1         0.6060   31.6080   59.4310 O.3     0  <0>0       -0.3584
     18  C17        1.2600   32.3790   60.4410 C.3     0  <0>0        0.1419
     19  C16        0.6190   33.7670   60.5190 C.3     0  <0>0        0.0321
     20  C15        0.7130   34.4410   59.1460 C.3     0  <0>0        0.0050
     21  C14        0.0380   33.5460   58.1030 C.3     0  <0>0        0.0274
@<TRIPOS>BOND
     1    11     9    1
     2     9    10    1
     3     9     6    1
     4     6     5   ar
     5     6     7   ar
     6     5     4   ar
     7     7     8   ar
     8     4     3   ar
     9     8     3   ar
    10     3     2    1
    11    14    12    1
    12     2    12    1
    13     2     1    1
    14    12    15    1
    15    12    13    1
    16    15    16    1
    17    21    16    1
    18    21    20    1
    19    16    17    1
    20    20    19    1
    21    17    18    1
    22    18    19    1
