@<TRIPOS>MOLECULE
ZINC36969942_replica-1.pdb
 19 20 0 0 0
SMALL
GASTEIGER

@<TRIPOS>ATOM
      1  C8         8.9830   35.7660   58.5390 C.ar    0  <0>0        0.0585
      2  C9         8.7640   34.4000   58.4170 C.ar    0  <0>0        0.0553
      3  C10        7.9340   33.9170   57.4200 C.ar    0  <0>0        0.1777
      4  C11        7.3190   34.8040   56.5390 C.ar    0  <0>0        0.1774
      5  C12        7.5390   36.1660   56.6620 C.ar    0  <0>0        0.0528
      6  C13        8.3640   36.6480   57.6620 C.ar    0  <0>0        0.0739
      7 Cl          8.6330   38.3560   57.8170 Cl      0  <0>0       -0.0809
      8  O1         6.5590   34.0870   55.6580 O.3     0  <0>0       -0.4346
      9  C14        7.0380   32.7320   55.7520 C.3     0  <0>0        0.4294
     10  O2         7.5600   32.6470   57.0920 O.3     0  <0>0       -0.4346
     11  N1         9.8220   36.2540   59.5480 N.pl3   0  <0>0       -0.3333
     12  H16       10.5620   36.8380   59.3220 H       0  <0>0        0.1468
     13  C2         9.5810   35.8810   60.9440 C.3     0  <0>0        0.0691
     14  C1         8.6740   36.9240   61.6010 C.3     0  <0>0        0.0212
     15  C3        10.9150   35.8200   61.6920 C.3     0  <0>0        0.0195
     16  C4        11.6270   34.5090   61.3580 C.3     0  <0>0        0.0017
     17  C5        12.4040   34.0240   62.5830 C.3     0  <0>0        0.0001
     18  C6        11.9370   32.6160   62.9600 C.3     0  <0>0        0.0000
     19  C7        13.9000   33.9950   62.2610 C.3     0  <0>0        0.0000
@<TRIPOS>BOND
     1     8     9    1
     2     8     4    1
     3     9    10    1
     4     4     5   ar
     5     4     3   ar
     6     5     6   ar
     7    10     3    1
     8     3     2   ar
     9     6     7    1
    10     6     1   ar
    11     2     1   ar
    12     1    11    1
    13    12    11    1
    14    11    13    1
    15    13    14    1
    16    13    15    1
    17    16    15    1
    18    16    17    1
    19    19    17    1
    20    17    18    1
