@<TRIPOS>MOLECULE
ZINC12583314_replica-1.pdb
 31 33 0 0 0
SMALL
GASTEIGER

@<TRIPOS>ATOM
      1  C9         8.9950   36.7210   58.8170 C.ar    0  <0>0        0.1253
      2  C10        9.4600   35.4450   58.5520 C.ar    0  <0>0        0.0217
      3  C11       10.1890   34.7620   59.5040 C.ar    0  <0>0        0.0205
      4  C12       10.4480   35.3570   60.7400 C.ar    0  <0>0        0.0814
      5  C13        9.9710   36.6430   61.0030 C.ar    0  <0>0        0.0205
      6  C14        9.2480   37.3160   60.0400 C.ar    0  <0>0        0.0217
      7  S1         8.0710   37.5890   57.5940 S.O2    0  <0>0        0.0736
      8  O1         8.6150   37.2180   56.3340 O.2     0  <0>0       -0.1499
      9  O2         7.9990   38.9410   58.0240 O.2     0  <0>0       -0.1499
     10  N1         6.5250   36.9960   57.6350 N.pl3   0  <0>0       -0.2156
     11  H9         5.8440   37.3770   57.0600 H       0  <0>0        0.1737
     12  C5         6.2030   35.9470   58.4990 C.ar    0  <0>0        0.0568
     13  C4         5.8200   36.2160   59.8080 C.ar    0  <0>0       -0.0079
     14  C3         5.5030   35.1760   60.6600 C.ar    0  <0>0       -0.0073
     15  C22        5.7520   37.6390   60.2960 C.3     0  <0>0        0.0323
     16  C2         5.5650   33.8690   60.2120 C.ar    0  <0>0       -0.0224
     17  C1         5.2120   32.7370   61.1420 C.3     0  <0>0        0.0310
     18  C7         5.9460   33.5980   58.9100 C.ar    0  <0>0       -0.0073
     19  C6         6.2650   34.6330   58.0520 C.ar    0  <0>0       -0.0079
     20  C8         6.6790   34.3380   56.6340 C.3     0  <0>0        0.0323
     21  N2        11.1670   34.6830   61.6910 N.2     0  <0>0       -0.2437
     22  C15       12.4140   34.3760   61.4680 C.2     0  <0>0        0.1018
     23  C16       13.1860   33.6530   62.4900 C.ar    0  <0>0        0.0533
     24  C21       12.7540   32.3990   62.9450 C.ar    0  <0>0        0.1351
     25  C20       13.4930   31.7240   63.9050 C.ar    0  <0>0        0.0372
     26  C19       14.6440   32.2900   64.4170 C.ar    0  <0>0        0.0098
     27  C18       15.0730   33.5320   63.9750 C.ar    0  <0>0        0.0348
     28  C17       14.3540   34.2150   63.0180 C.ar    0  <0>0        0.0113
     29 Br         16.6510   34.2900   64.6880 Br      0  <0>0       -0.0490
     30  O3        11.6190   31.8460   62.4460 O.3     0  <0>0       -0.5055
     31  H18       10.9670   31.6110   63.1200 H       0  <0>0        0.2922
@<TRIPOS>BOND
     1     8     7    2
     2    20    19    1
     3    11    10    1
     4     7    10    1
     5     7     9    2
     6     7     1    1
     7    10    12    1
     8    19    12   ar
     9    19    18   ar
    10    12    13   ar
    11     2     1   ar
    12     2     3   ar
    13     1     6   ar
    14    18    16   ar
    15     3     4   ar
    16    13    15    1
    17    13    14   ar
    18     6     5   ar
    19    16    14   ar
    20    16    17    1
    21     4     5   ar
    22     4    21    1
    23    22    21    2
    24    22    23    1
    25    30    24    1
    26    30    31    1
    27    23    24   ar
    28    23    28   ar
    29    24    25   ar
    30    28    27   ar
    31    25    26   ar
    32    27    26   ar
    33    27    29    1
