@<TRIPOS>MOLECULE
ZINC37124062_replica-1.pdb
 21 22 0 0 0
SMALL
GASTEIGER

@<TRIPOS>ATOM
      1  C8        10.0420   35.3260   60.5690 C.ar    0  <0>0        0.0444
      2  C9         9.9770   34.4550   59.4890 C.ar    0  <0>0        0.0155
      3  C10        9.3720   34.8560   58.3150 C.ar    0  <0>0        0.0156
      4  C11        8.8290   36.1300   58.2140 C.ar    0  <0>0        0.0463
      5  C12        8.8930   37.0000   59.2950 C.ar    0  <0>0       -0.0070
      6  C13        9.4940   36.5980   60.4700 C.ar    0  <0>0        0.0113
      7  C14        8.3020   38.3800   59.1820 C.3     0  <0>0        0.0372
      8  C15        8.4730   38.8950   57.7520 C.3     0  <0>0        0.0901
      9  C16        8.0190   37.8470   56.7720 C.2     0  <0>0        0.2264
     10  O1         7.4730   38.1840   55.7440 O.2     0  <0>0       -0.2748
     11  N2         8.2150   36.5390   57.0240 N.am    0  <0>0       -0.2842
     12  H24        7.9270   35.8770   56.3770 H       0  <0>0        0.1548
     13  N1        10.6560   34.9180   61.7590 N.pl3   0  <0>0       -0.3340
     14  H16       10.1880   34.3250   62.3680 H       0  <0>0        0.1468
     15  C2        12.0050   35.3870   62.0860 C.3     0  <0>0        0.0691
     16  C1        11.9460   36.2910   63.3190 C.3     0  <0>0        0.0212
     17  C3        12.9060   34.1850   62.3770 C.3     0  <0>0        0.0195
     18  C4        12.0560   33.0250   62.9000 C.3     0  <0>0        0.0017
     19  C5        12.9210   31.7680   63.0100 C.3     0  <0>0        0.0001
     20  C6        14.2260   32.1080   63.7350 C.3     0  <0>0        0.0000
     21  C7        12.1660   30.6960   63.7960 C.3     0  <0>0        0.0000
@<TRIPOS>BOND
     1    10     9    2
     2    12    11    1
     3     9    11   am
     4     9     8    1
     5    11     4    1
     6     8     7    1
     7     4     3   ar
     8     4     5   ar
     9     3     2   ar
    10     7     5    1
    11     5     6   ar
    12     2     1   ar
    13     6     1   ar
    14     1    13    1
    15    13    15    1
    16    13    14    1
    17    15    17    1
    18    15    16    1
    19    17    18    1
    20    18    19    1
    21    19    20    1
    22    19    21    1
