@<TRIPOS>MOLECULE
ZINC48356246_replica-1.pdb
 28 30 0 0 0
SMALL
GASTEIGER

@<TRIPOS>ATOM
      1  C7         5.7930   34.3590   60.0000 C.2     0  <0>0        0.2714
      2  O1         5.5470   34.3450   61.1880 O.2     0  <0>0       -0.2706
      3  N4         6.8980   34.9850   59.5480 N.am    0  <0>0       -0.3006
      4  H10        7.0940   34.9960   58.5980 H       0  <0>0        0.1496
      5  C8         7.8010   35.6470   60.4920 C.3     0  <0>0        0.0934
      6  C9         9.0080   36.2070   59.7350 C.3     0  <0>0        0.0369
      7  C14        9.8150   37.1180   60.6620 C.3     0  <0>0        0.0057
      8  C13       10.2990   36.3150   61.8710 C.3     0  <0>0        0.0004
      9  C12       11.1830   35.1610   61.3960 C.3     0  <0>0        0.0000
     10  C11       10.3770   34.2500   60.4680 C.3     0  <0>0        0.0004
     11  C10        9.8920   35.0520   59.2590 C.3     0  <0>0        0.0057
     12  C15        8.5310   36.9980   58.5440 C.ar    0  <0>0       -0.0215
     13  C20        8.3840   36.3780   57.3170 C.ar    0  <0>0       -0.0085
     14  C19        7.9410   37.1020   56.2250 C.ar    0  <0>0       -0.0222
     15  C18        7.6570   38.4480   56.3580 C.ar    0  <0>0       -0.0043
     16  C21        7.7750   36.4250   54.8890 C.3     0  <0>0        0.0310
     17  C17        7.8090   39.0690   57.5840 C.ar    0  <0>0       -0.0006
     18  C16        8.2470   38.3440   58.6760 C.ar    0  <0>0       -0.0043
     19  C6         4.8640   33.6770   59.0300 C.3     0  <0>0        0.3017
     20  N3         3.6840   34.5170   58.8100 N.am    0  <0>0       -0.1093
     21  C4         3.5630   35.5560   57.9300 C.2     0  <0>0        0.3408
     22  N1         2.3530   36.0270   58.0500 N.2     0  <0>0        0.0876
     23  N2         1.7090   35.3650   58.9420 N.2     0  <0>0        0.0470
     24  C5         2.4790   34.4270   59.4450 C.1     0  <0>0        0.1798
     25  S1         2.0370   33.2680   60.6950 S.2     0  <0>0        0.0561
     26  C3         4.6280   36.0600   56.9900 C.3     0  <0>0        0.1209
     27  C2         4.0000   36.3810   55.6330 C.3     0  <0>0        0.0128
     28  C1         4.0790   35.1490   54.7290 C.3     0  <0>0        0.0006
@<TRIPOS>BOND
     1    28    27    1
     2    16    14    1
     3    27    26    1
     4    14    15   ar
     5    14    13   ar
     6    15    17   ar
     7    26    21    1
     8    13    12   ar
     9    17    18   ar
    10    21    22    2
    11    21    20    1
    12    22    23    1
    13    12    18   ar
    14    12     6    1
    15     4     3    1
    16    20    19    1
    17    20    24    1
    18    23    24    2
    19    19     1    1
    20    11     6    1
    21    11    10    1
    22    24    25    2
    23     3     1   am
    24     3     5    1
    25     6     5    1
    26     6     7    1
    27     1     2    2
    28    10     9    1
    29     7     8    1
    30     9     8    1
