@<TRIPOS>MOLECULE
ZINC59261032_replica-1.pdb
 34 38 0 0 0
SMALL
GASTEIGER

@<TRIPOS>ATOM
      1  C17       -0.5720   30.8200   56.5050 C.2     0  <0>0        0.1176
      2  N1         0.3120   31.7390   56.3840 N.2     0  <0>0       -0.1776
      3  C9        -0.2460   29.4320   56.1400 C.ar    0  <0>0        0.0207
      4  C8         0.4710   28.5610   57.0900 C.ar    0  <0>0        0.0016
      5  C7         0.7660   27.3190   56.7700 C.ar    0  <0>0        0.0000
      6  C6         0.3780   26.7820   55.4500 C.ar    0  <0>0        0.0000
      7  C5         0.7060   25.3940   55.0940 C.ar    0  <0>0        0.0000
      8  C11       -0.2600   27.5650   54.6130 C.ar    0  <0>0        0.0000
      9  C4         0.3830   24.8690   53.9310 C.ar    0  <0>0        0.0000
     10  C3        -0.3350   25.6790   52.9330 C.ar    0  <0>0        0.0000
     11  C2        -0.6810   25.2060   51.7600 C.ar    0  <0>0        0.0000
     12  C12       -0.6670   27.0720   53.2860 C.ar    0  <0>0        0.0000
     13  C1        -1.3970   26.0760   50.8090 C.ar    0  <0>0        0.0000
     14  C14       -1.6910   27.3180   51.1290 C.ar    0  <0>0        0.0000
     15  C13       -1.3040   27.8550   52.4490 C.ar    0  <0>0        0.0000
     16  C15       -1.6320   29.2430   52.8050 C.ar    0  <0>0        0.0000
     17  C16       -1.3090   29.7680   53.9670 C.ar    0  <0>0        0.0000
     18  C10       -0.5920   28.9580   54.9670 C.ar    0  <0>0        0.0015
     19  N2         0.0030   33.0600   56.7320 N.am    0  <0>0       -0.2058
     20  C18        0.9650   34.0030   56.7180 C.2     0  <0>0        0.2411
     21  O1         2.1000   33.7080   56.4060 O.2     0  <0>0       -0.2734
     22  H11       -0.9040   33.2960   56.9820 H       0  <0>0        0.1773
     23  C19        0.6320   35.4240   57.0920 C.3     0  <0>0        0.0885
     24  C20        1.7630   36.0070   57.9430 C.3     0  <0>0        0.0308
     25  C21        1.9810   35.1260   59.1740 C.3     0  <0>0        0.0875
     26  N3         0.7510   35.0790   59.9670 N.pl3   0  <0>0       -0.3326
     27  H18        0.1190   35.8150   59.9270 H       0  <0>0        0.1468
     28  C22        0.4860   33.9750   60.7820 C.ar    0  <0>0        0.0447
     29  C27       -0.1860   34.1440   61.9850 C.ar    0  <0>0        0.0152
     30  C26       -0.4510   33.0510   62.7870 C.ar    0  <0>0        0.0127
     31  C25       -0.0400   31.7890   62.3950 C.ar    0  <0>0        0.0578
     32  C24        0.6350   31.6180   61.1990 C.ar    0  <0>0        0.0127
     33 Cl         -0.3700   30.4180   63.4070 Cl      0  <0>0       -0.0822
     34  C23        0.8980   32.7080   60.3920 C.ar    0  <0>0        0.0152
@<TRIPOS>BOND
     1    13    14   ar
     2    13    11   ar
     3    14    15   ar
     4    11    10   ar
     5    15    16   ar
     6    15    12   ar
     7    16    17   ar
     8    10    12   ar
     9    10     9   ar
    10    12     8   ar
    11     9     7   ar
    12    17    18   ar
    13     8    18   ar
    14     8     6   ar
    15    18     3   ar
    16     7     6   ar
    17     6     5   ar
    18     3     1    1
    19     3     4   ar
    20     2     1    2
    21     2    19    1
    22    21    20    2
    23    20    19   am
    24    20    23    1
    25    19    22    1
    26     5     4   ar
    27    23    24    1
    28    24    25    1
    29    25    26    1
    30    27    26    1
    31    26    28    1
    32    34    28   ar
    33    34    32   ar
    34    28    29   ar
    35    32    31   ar
    36    29    30   ar
    37    31    30   ar
    38    31    33    1
