@<TRIPOS>MOLECULE
ZINC05415463_replica-1.pdb
 23 24 0 0 0
SMALL
GASTEIGER

@<TRIPOS>ATOM
      1  N2        -0.0510   30.5340   55.6070 N.2     0  <0>0       -0.1833
      2  C8        -0.8990   29.5540   55.5610 C.2     0  <0>0        0.0774
      3  C9        -2.0410   29.4980   56.5430 C.3     0  <0>0        0.0538
      4  N1        -0.1950   31.5410   56.5700 N.am    0  <0>0       -0.2026
      5  C7         0.8890   32.0260   57.2070 C.2     0  <0>0        0.2672
      6  O2         1.9940   31.5890   56.9450 O.2     0  <0>0       -0.2683
      7  H8        -1.0760   31.8890   56.7800 H       0  <0>0        0.1776
      8  C4         0.7370   33.0840   58.2210 C.ar    0  <0>0        0.0879
      9  C3         0.3380   32.9190   59.6250 C.ar    0  <0>0        0.0402
     10  C2         0.3400   34.1500   60.1580 C.ar    0  <0>0        0.1230
     11  C1        -0.0020   34.4860   61.5860 C.3     0  <0>0        0.0725
     12  O1         0.6890   35.0370   59.2120 O.2     0  <0>0       -0.4619
     13  C5         0.9310   34.4240   58.0490 C.ar    0  <0>0        0.1272
     14  C6         1.3460   35.0980   56.7670 C.3     0  <0>0        0.0726
     15  C10       -0.7470   28.4940   54.5470 C.ar    0  <0>0        0.0265
     16  C15       -1.3810   28.6140   53.3060 C.ar    0  <0>0        0.0702
     17  C14       -1.2300   27.6200   52.3590 C.ar    0  <0>0        0.0788
     18 Cl         -2.3490   30.0120   52.9540 Cl      0  <0>0       -0.0813
     19  C13       -0.4620   26.5010   52.6410 C.ar    0  <0>0        0.0690
     20 Cl         -2.0100   27.7680   50.8150 Cl      0  <0>0       -0.0805
     21  C12        0.1640   26.3760   53.8700 C.ar    0  <0>0        0.0123
     22 Cl         -0.2820   25.2530   51.4490 Cl      0  <0>0       -0.0813
     23  C11        0.0260   27.3630   54.8230 C.ar    0  <0>0        0.0030
@<TRIPOS>BOND
     1    20    17    1
     2    22    19    1
     3    17    19   ar
     4    17    16   ar
     5    19    21   ar
     6    18    16    1
     7    16    15   ar
     8    21    23   ar
     9    15    23   ar
    10    15     2    1
    11     2     1    2
    12     2     3    1
    13     1     4    1
    14     4     7    1
    15     4     5   am
    16    14    13    1
    17     6     5    2
    18     5     8    1
    19    13     8   ar
    20    13    12   ar
    21     8     9   ar
    22    12    10   ar
    23     9    10   ar
    24    10    11    1
