@<TRIPOS>MOLECULE
ZINC02512009_replica-1.pdb
 27 28 0 0 0
SMALL
GASTEIGER

@<TRIPOS>ATOM
      1  C11        8.6410   37.0310   59.0440 C.3     0  <0>0        0.1085
      2  C8         9.6100   36.3340   59.9650 C.ar    0  <0>0       -0.0039
      3  C7        10.0160   36.9490   61.1350 C.ar    0  <0>0       -0.0030
      4  C6        10.9040   36.3090   61.9800 C.ar    0  <0>0       -0.0046
      5  C5        11.3840   35.0550   61.6550 C.ar    0  <0>0       -0.0228
      6  C10       10.9810   34.4410   60.4830 C.ar    0  <0>0       -0.0046
      7  C9        10.0910   35.0800   59.6400 C.ar    0  <0>0       -0.0030
      8  C2        12.3510   34.3570   62.5760 C.3     0  <0>0        0.0189
      9  C1        11.8050   32.9740   62.9380 C.3     0  <0>0        0.0044
     10  C3        12.5280   35.1840   63.8510 C.3     0  <0>0        0.0044
     11  C4        13.7020   34.2040   61.8760 C.3     0  <0>0        0.0044
     12  C12        7.5540   37.7200   59.8720 C.3     0  <0>0        0.1382
     13  C13        6.3970   36.7750   60.0680 C.2     0  <0>0        0.3669
     14  O1         6.4820   35.8660   60.8750 O.co2   0  <0>0       -0.2456
     15  O2         5.3750   36.9200   59.4180 O.co2   0  <0>0       -0.2456
     16  N1         8.0250   36.0480   58.1500 N.am    0  <0>0       -0.2680
     17  C14        8.0530   36.2380   56.8160 C.2     0  <0>0        0.4022
     18  O3         8.5100   37.2680   56.3590 O.2     0  <0>0       -0.2264
     19  H17        7.5960   35.2590   58.5180 H       0  <0>0        0.1530
     20  O4         7.5740   35.2900   55.9900 O.3     0  <0>0       -0.4297
     21  C15        6.6620   35.7140   54.9740 C.3     0  <0>0        0.2367
     22  C16        5.2510   35.3980   55.4010 C.ar    0  <0>0        0.0213
     23  C21        4.4850   36.3630   56.0260 C.ar    0  <0>0       -0.0007
     24  C20        3.1900   36.0740   56.4140 C.ar    0  <0>0       -0.0002
     25  C19        2.6640   34.8160   56.1840 C.ar    0  <0>0       -0.0000
     26  C18        3.4330   33.8490   55.5630 C.ar    0  <0>0       -0.0002
     27  C17        4.7260   34.1400   55.1720 C.ar    0  <0>0       -0.0007
@<TRIPOS>BOND
     1    21    22    1
     2    21    20    1
     3    27    22   ar
     4    27    26   ar
     5    22    23   ar
     6    26    25   ar
     7    20    17    1
     8    23    24   ar
     9    25    24   ar
    10    18    17    2
    11    17    16   am
    12    16    19    1
    13    16     1    1
    14     1    12    1
    15     1     2    1
    16    15    13   ar
    17     7     2   ar
    18     7     6   ar
    19    12    13    1
    20     2     3   ar
    21    13    14   ar
    22     6     5   ar
    23     3     4   ar
    24     5     4   ar
    25     5     8    1
    26    11     8    1
    27     8     9    1
    28     8    10    1
