@<TRIPOS>MOLECULE
ZINC02504687_replica-1.pdb
 21 22 0 0 0
SMALL
GASTEIGER

@<TRIPOS>ATOM
      1  N1        13.5290   31.6460   63.8450 N.2     0  <0>0       -0.1961
      2  C19       12.9720   30.5820   64.1920 C.1     0  <0>0        0.0415
      3  S1        12.2800   29.2610   64.6230 S.2     0  <0>0        0.0207
      4  C16       12.8850   32.5110   63.0760 C.ar    0  <0>0        0.0910
      5  C15       11.5350   32.2760   62.7060 C.ar    0  <0>0        0.0196
      6  C14       10.8880   33.1720   61.9110 C.ar    0  <0>0       -0.0027
      7  C13       11.5380   34.3180   61.4700 C.ar    0  <0>0       -0.0224
      8  C18       12.8590   34.5640   61.8220 C.ar    0  <0>0       -0.0027
      9  C17       13.5360   33.6840   62.6140 C.ar    0  <0>0        0.0196
     10  C10       10.8050   35.3020   60.5950 C.3     0  <0>0        0.0223
     11  C9         9.7390   34.5660   59.7810 C.3     0  <0>0        0.0044
     12  C8         8.9940   35.5630   58.8930 C.3     0  <0>0        0.0003
     13  C7         8.3250   36.6250   59.7690 C.3     0  <0>0        0.0000
     14  C12        9.3900   37.3620   60.5820 C.3     0  <0>0        0.0003
     15  C11       10.1350   36.3630   61.4700 C.3     0  <0>0        0.0044
     16  C6         7.5800   37.6230   58.8800 C.3     0  <0>0        0.0000
     17  C5         8.5840   38.5910   58.2490 C.3     0  <0>0        0.0000
     18  C4         8.4400   38.5540   56.7270 C.3     0  <0>0        0.0000
     19  C3         7.2130   37.7210   56.3510 C.3     0  <0>0        0.0000
     20  C2         7.5920   36.7240   55.2540 C.3     0  <0>0        0.0000
     21  C1         7.1200   35.3240   55.6540 C.3     0  <0>0        0.0000
@<TRIPOS>BOND
     1    20    21    1
     2    20    19    1
     3    19    18    1
     4    18    17    1
     5    17    16    1
     6    16    13    1
     7    12    13    1
     8    12    11    1
     9    13    14    1
    10    11    10    1
    11    14    15    1
    12    10    15    1
    13    10     7    1
    14     7     8   ar
    15     7     6   ar
    16     8     9   ar
    17     6     5   ar
    18     9     4   ar
    19     5     4   ar
    20     4     1    1
    21     1     2    2
    22     2     3    2
