@<TRIPOS>MOLECULE
ZINC33171472_replica-1.pdb
 28 31 0 0 0
SMALL
GASTEIGER

@<TRIPOS>ATOM
      1  C8        10.9130   34.4090   61.4070 C.1     0  <0>0        0.1268
      2  N1        10.7850   35.7380   61.1970 N.2     0  <0>0       -0.3122
      3  C9         9.6540   35.8860   60.5540 C.2     0  <0>0        0.3014
      4  O1         9.1320   34.6660   60.3920 O.2     0  <0>0       -0.3151
      5  N2         9.8650   33.8320   60.8800 N.2     0  <0>0       -0.0072
      6  C10        9.0530   37.1860   60.0850 C.3     0  <0>0        0.1678
      7  C11        8.1870   36.9330   58.8780 C.2     0  <0>0        0.1450
      8  S1         8.6310   36.9420   57.2000 S.3     0  <0>0       -0.0786
      9  C13        7.0210   36.5520   56.5290 C.3     0  <0>0        0.1230
     10  C12        6.2850   36.4580   57.6800 C.2     0  <0>0        0.1204
     11  N3         6.9060   36.6560   58.8310 N.2     0  <0>0       -0.4029
     12  C14        4.8350   36.1460   57.6370 C.ar    0  <0>0        0.0263
     13  C19        4.1720   36.0700   56.4130 C.ar    0  <0>0        0.0031
     14  C18        2.8240   35.7790   56.3780 C.ar    0  <0>0        0.0115
     15  C17        2.1300   35.5620   57.5560 C.ar    0  <0>0        0.0577
     16  C16        2.7840   35.6370   58.7740 C.ar    0  <0>0        0.0115
     17 Cl          0.4330   35.1970   57.5050 Cl      0  <0>0       -0.0822
     18  C15        4.1320   35.9220   58.8190 C.ar    0  <0>0        0.0031
     19  C3        12.0370   33.7300   62.1000 C.ar    0  <0>0        0.0770
     20  C2        13.3000   34.3160   62.1230 C.ar    0  <0>0        0.0111
     21  C1        14.3400   33.6840   62.7750 C.ar    0  <0>0        0.0007
     22  C6        14.1320   32.4650   63.3940 C.ar    0  <0>0        0.0039
     23  C5        12.8800   31.8790   63.3740 C.ar    0  <0>0        0.0721
     24  C4        11.8310   32.5040   62.7300 C.ar    0  <0>0        0.0150
     25  C7        12.6580   30.5530   64.0560 C.3     0  <0>0        0.4186
     26  F1        13.1740   29.5260   63.2580 F       0  <0>0       -0.1659
     27  F2        13.3070   30.5520   65.2950 F       0  <0>0       -0.1659
     28  F3        11.2870   30.3510   64.2480 F       0  <0>0       -0.1659
@<TRIPOS>BOND
     1    14    13   ar
     2    14    15   ar
     3    13    12   ar
     4     9     8    1
     5     9    10    1
     6     8     7    1
     7    17    15    1
     8    15    16   ar
     9    12    10    1
    10    12    18   ar
    11    10    11    2
    12    16    18   ar
    13    11     7    2
    14     7     6    1
    15     6     3    1
    16     4     3    1
    17     4     5    1
    18     3     2    2
    19     5     1    2
    20     2     1    2
    21     1    19    1
    22    19    20   ar
    23    19    24   ar
    24    20    21   ar
    25    24    23   ar
    26    21    22   ar
    27    26    25    1
    28    23    22   ar
    29    23    25    1
    30    25    28    1
    31    25    27    1
