@<TRIPOS>MOLECULE
ZINC13173707_replica-1.pdb
 28 29 0 0 0
SMALL
GASTEIGER

@<TRIPOS>ATOM
      1  C10        9.8330   35.7740   60.3690 C.2     0  <0>0        0.2462
      2  O1        10.0070   36.9620   60.5660 O.2     0  <0>0       -0.2701
      3  N1         8.7330   35.3540   59.7130 N.am    0  <0>0       -0.2982
      4  H8         8.6300   34.4150   59.4920 H       0  <0>0        0.1500
      5  C9        10.8200   34.8010   60.8420 C.2     0  <0>0        0.0577
      6  C8        11.5140   35.0400   61.9730 C.2     0  <0>0        0.0046
      7  C3        12.5050   34.0610   62.4490 C.ar    0  <0>0        0.0001
      8  C2        13.8690   34.3620   62.4020 C.ar    0  <0>0       -0.0000
      9  C1        14.7910   33.4400   62.8550 C.ar    0  <0>0       -0.0001
     10  C6        14.3680   32.2180   63.3440 C.ar    0  <0>0        0.0039
     11  C5        13.0190   31.9130   63.3950 C.ar    0  <0>0        0.0714
     12  C4        12.0850   32.8250   62.9520 C.ar    0  <0>0        0.0039
     13  C7        12.5690   30.5800   63.9370 C.3     0  <0>0        0.4186
     14  F1        11.1720   30.5420   63.9820 F       0  <0>0       -0.1659
     15  F2        13.0380   29.5570   63.1040 F       0  <0>0       -0.1659
     16  F3        13.0830   30.4030   65.2260 F       0  <0>0       -0.1659
     17  C11        7.6940   36.3150   59.3360 C.3     0  <0>0        0.1056
     18  C12        7.8920   36.7350   57.8790 C.3     0  <0>0        0.1381
     19  C13        8.1160   38.2240   57.8110 C.2     0  <0>0        0.3669
     20  O2         7.6740   38.9410   58.6760 O.co2   0  <0>0       -0.2456
     21  O3         8.8090   38.7530   56.7900 O.co2   0  <0>0       -0.2456
     22  C14        6.3380   35.6760   59.4950 C.ar    0  <0>0       -0.0039
     23  C19        5.2670   36.1320   58.7490 C.ar    0  <0>0       -0.0018
     24  C18        4.0240   35.5460   58.8940 C.ar    0  <0>0        0.0111
     25  C17        3.8510   34.5020   59.7840 C.ar    0  <0>0        0.0577
     26  C16        4.9220   34.0460   60.5310 C.ar    0  <0>0        0.0111
     27 Cl          2.2900   33.7650   59.9660 Cl      0  <0>0       -0.0822
     28  C15        6.1670   34.6290   60.3820 C.ar    0  <0>0       -0.0018
@<TRIPOS>BOND
     1    21    19   ar
     2    19    18    1
     3    19    20   ar
     4    18    17    1
     5    23    24   ar
     6    23    22   ar
     7    24    25   ar
     8    17    22    1
     9    17     3    1
    10     4     3    1
    11    22    28   ar
    12     3     1   am
    13    25    27    1
    14    25    26   ar
    15     1     2    2
    16     1     5    1
    17    28    26   ar
    18     5     6    2
    19     6     7    1
    20     8     7   ar
    21     8     9   ar
    22     7    12   ar
    23     9    10   ar
    24    12    11   ar
    25    15    13    1
    26    10    11   ar
    27    11    13    1
    28    13    14    1
    29    13    16    1
