@<TRIPOS>MOLECULE
ZINC63685524_replica-1.pdb
 24 25 0 0 0
SMALL
GASTEIGER

@<TRIPOS>ATOM
      1  C6        -1.2470   31.0850   55.7560 C.2     0  <0>0        0.3396
      2  O1        -2.4400   31.0720   55.9510 O.2     0  <0>0       -0.2479
      3  C5        -0.2970   31.3170   56.9020 C.3     0  <0>0        0.1743
      4  C4        -0.5990   30.3210   58.0240 C.3     0  <0>0        0.0312
      5  C2         0.7150   29.8040   58.6130 C.3     0  <0>0        0.0022
      6  C1         0.7620   30.1200   60.1090 C.3     0  <0>0        0.0001
      7  C3         0.8040   28.2900   58.4080 C.3     0  <0>0        0.0001
      8  N1        -0.4630   32.6840   57.4040 N.am    0  <0>0       -0.2624
      9  C17        0.5120   33.5940   57.2160 C.2     0  <0>0        0.4021
     10  O3         1.4890   33.3090   56.5520 O.2     0  <0>0       -0.2264
     11  H18       -1.2760   32.9330   57.8720 H       0  <0>0        0.1532
     12  O4         0.4040   34.8190   57.7630 O.3     0  <0>0       -0.4306
     13  C18        1.4370   35.7590   57.4580 C.3     0  <0>0        0.2573
     14  O2        -0.7680   30.8940   54.5160 O.3     0  <0>0       -0.4230
     15  C7        -0.6170   29.6150   54.0800 C.ar    0  <0>0        0.1485
     16  C16       -1.2860   29.1990   52.9640 C.ar    0  <0>0        0.0376
     17  C15       -1.1250   27.8800   52.5100 C.ar    0  <0>0        0.0030
     18  C10       -0.2780   26.9970   53.2250 C.ar    0  <0>0        0.0002
     19  C14       -1.7920   27.4180   51.3620 C.ar    0  <0>0        0.0001
     20  C9         0.3900   27.4560   54.3720 C.ar    0  <0>0        0.0031
     21  C11       -0.1240   25.6750   52.7720 C.ar    0  <0>0        0.0000
     22  C8         0.2180   28.7410   54.7830 C.ar    0  <0>0        0.0376
     23  C12       -0.7860   25.2620   51.6560 C.ar    0  <0>0        0.0000
     24  C13       -1.6190   26.1310   50.9540 C.ar    0  <0>0        0.0000
@<TRIPOS>BOND
     1    24    19   ar
     2    24    23   ar
     3    19    17   ar
     4    23    21   ar
     5    17    16   ar
     6    17    18   ar
     7    21    18   ar
     8    16    15   ar
     9    18    20   ar
    10    15    14    1
    11    15    22   ar
    12    20    22   ar
    13    14     1    1
    14     1     2    2
    15     1     3    1
    16    10     9    2
    17     3     8    1
    18     3     4    1
    19     9     8   am
    20     9    12    1
    21     8    11    1
    22    13    12    1
    23     4     5    1
    24     7     5    1
    25     5     6    1
