@<TRIPOS>MOLECULE
ZINC21821192_replica-1.pdb
 18 19 0 0 0
SMALL
GASTEIGER

@<TRIPOS>ATOM
      1  S1        -0.1220   28.2250   54.8290 S.3     0  <0>0        0.0528
      2  O1         0.5060   29.4150   54.3720 O.3     0  <0>0       -0.0569
      3  O2         0.5100   27.3280   55.7320 O.3     0  <0>0       -0.0569
      4  C4        -0.5320   27.2890   53.3940 C.ar    0  <0>0        0.1476
      5  C3        -0.1170   25.9750   53.2840 C.ar    0  <0>0        0.0221
      6  C2        -0.4430   25.2380   52.1610 C.ar    0  <0>0        0.0015
      7  C1        -1.1750   25.8180   51.1420 C.ar    0  <0>0        0.0024
      8  C6        -1.5860   27.1320   51.2480 C.ar    0  <0>0        0.0310
      9  C5        -1.2650   27.8700   52.3740 C.ar    0  <0>0        0.1585
     10  F1        -1.6670   29.1560   52.4780 F       0  <0>0       -0.2028
     11  O3        -1.4310   28.6470   55.4810 O.3     0  <0>0       -0.3572
     12  C7        -1.3960   28.6530   56.8400 C.ar    0  <0>0        0.1718
     13  C12       -0.6710   29.6260   57.5110 C.ar    0  <0>0        0.0402
     14  C11       -0.6360   29.6300   58.8920 C.ar    0  <0>0        0.0090
     15  C10       -1.3250   28.6650   59.6050 C.ar    0  <0>0        0.0303
     16  C9        -2.0490   27.6940   58.9370 C.ar    0  <0>0        0.0090
     17  I1        -1.2700   28.6740   61.6990 I       0  <0>0       -0.0425
     18  C8        -2.0860   27.6860   57.5560 C.ar    0  <0>0        0.0402
@<TRIPOS>BOND
     1     7     8   ar
     2     7     6   ar
     3     8     9   ar
     4     6     5   ar
     5     9    10    1
     6     9     4   ar
     7     5     4   ar
     8     4     1    1
     9     2     1    1
    10     1    11    1
    11     1     3    1
    12    11    12    1
    13    12    13   ar
    14    12    18   ar
    15    13    14   ar
    16    18    16   ar
    17    14    15   ar
    18    16    15   ar
    19    15    17    1
