@<TRIPOS>MOLECULE
ZINC67191832_replica-1.pdb
 24 24 0 0 0
SMALL
GASTEIGER

@<TRIPOS>ATOM
      1  C6         2.7020   33.8550   59.9370 C.2     0  <0>0        0.2251
      2  O1         3.8050   33.5220   60.3180 O.2     0  <0>0       -0.2749
      3  N1         2.5660   34.9130   59.1130 N.am    0  <0>0       -0.2796
      4  C7         1.2320   35.3830   58.7140 C.3     0  <0>0        0.0934
      5  C8         1.1700   35.4490   57.1850 C.3     0  <0>0        0.0216
      6  C9         2.3220   36.3130   56.6680 C.3     0  <0>0        0.0035
      7  C10        3.6570   35.6810   57.0700 C.3     0  <0>0        0.0216
      8  C11        3.7470   35.6220   58.6030 C.3     0  <0>0        0.0933
      9  C12        5.0140   34.8700   59.0150 C.3     0  <0>0        0.0929
     10  C13        5.6760   34.2660   57.7750 C.3     0  <0>0        0.0231
     11  N2         5.9450   35.7990   59.6620 N.am    0  <0>0       -0.2707
     12  C14        6.9440   35.3260   60.4320 C.2     0  <0>0        0.4014
     13  O2         7.0730   34.1280   60.5900 O.2     0  <0>0       -0.2264
     14  H25        5.8410   36.7550   59.5350 H       0  <0>0        0.1527
     15  O3         7.7990   36.1800   61.0250 O.3     0  <0>0       -0.4419
     16  C15        8.9430   36.5810   60.2700 C.3     0  <0>0        0.1378
     17  C16       10.1670   36.6310   61.1870 C.3     0  <0>0        0.0437
     18  C17        9.1910   35.5740   59.1440 C.3     0  <0>0        0.0437
     19  C18        8.6990   37.9670   59.6690 C.3     0  <0>0        0.0437
     20  C4         1.4860   33.0870   60.3840 C.3     0  <0>0        0.0767
     21  C5         1.3990   31.7710   59.6080 C.3     0  <0>0        0.0096
     22  C3         1.5940   32.7880   61.8810 C.3     0  <0>0        0.0091
     23  C2         0.2270   32.9890   62.5410 C.3     0  <0>0        0.0005
     24  C1        -0.4780   34.1850   61.8960 C.3     0  <0>0        0.0000
@<TRIPOS>BOND
     1     6     7    1
     2     6     5    1
     3     7     8    1
     4     5     4    1
     5    10     9    1
     6     8     9    1
     7     8     3    1
     8     4     3    1
     9     9    11    1
    10     3     1   am
    11    18    16    1
    12    14    11    1
    13    21    20    1
    14    11    12   am
    15    19    16    1
    16     1     2    2
    17     1    20    1
    18    16    15    1
    19    16    17    1
    20    20    22    1
    21    12    13    2
    22    12    15    1
    23    22    23    1
    24    24    23    1
