@<TRIPOS>MOLECULE
ZINC65331393_replica-1.pdb
 27 30 0 0 0
SMALL
GASTEIGER

@<TRIPOS>ATOM
      1  N1         4.6910   35.3600   57.1740 N.ar    0  <0>0       -0.2165
      2  C8         5.7590   34.6470   57.5870 C.ar    0  <0>0        0.1333
      3  C9         6.8700   35.1840   56.9900 C.ar    0  <0>0        0.0347
      4  C10        6.4600   36.2490   56.2020 C.ar    0  <0>0        0.1194
      5  N2         5.1560   36.3580   56.3020 N.ar    0  <0>0       -0.1627
      6  C11        8.2530   34.6300   57.2200 C.3     0  <0>0        0.0581
      7  C12        8.1270   33.1340   57.5260 C.3     0  <0>0        0.0943
      8  C13        7.0020   32.8610   58.4820 C.2     0  <0>0        0.2278
      9  O1         7.1370   31.9860   59.3100 O.2     0  <0>0       -0.2747
     10  N3         5.8450   33.5560   58.4500 N.am    0  <0>0       -0.2695
     11  H11        5.0950   33.3040   59.0120 H       0  <0>0        0.1562
     12  C3         3.3570   35.1420   57.5460 C.ar    0  <0>0        0.0810
     13  C2         2.5990   34.1850   56.8860 C.ar    0  <0>0        0.0065
     14  C1         3.2090   33.3780   55.7680 C.3     0  <0>0        0.0335
     15  C7         1.2820   33.9750   57.2520 C.ar    0  <0>0        0.0551
     16  C6         0.7250   34.7120   58.2830 C.ar    0  <0>0        0.0112
     17 Cl          0.3320   32.7830   56.4220 Cl      0  <0>0       -0.0825
     18  C5         1.4780   35.6660   58.9400 C.ar    0  <0>0        0.0024
     19  C4         2.7920   35.8820   58.5760 C.ar    0  <0>0        0.0189
     20  C14        8.8940   35.3360   58.3870 C.ar    0  <0>0       -0.0133
     21  C19        8.5340   36.6350   58.6910 C.ar    0  <0>0        0.0258
     22  C18        9.1190   37.2830   59.7650 C.ar    0  <0>0        0.1421
     23  C17       10.0730   36.6330   60.5280 C.ar    0  <0>0        0.0592
     24  F1         8.7610   38.5510   60.0660 F       0  <0>0       -0.2041
     25  C16       10.4380   35.3340   60.2190 C.ar    0  <0>0        0.1421
     26  C15        9.8480   34.6860   59.1480 C.ar    0  <0>0        0.0258
     27  F2        11.3690   34.6990   60.9640 F       0  <0>0       -0.2041
@<TRIPOS>BOND
     1    14    13    1
     2     4     5   ar
     3     4     3   ar
     4     5     1   ar
     5    17    15    1
     6    13    15   ar
     7    13    12   ar
     8     3     6    1
     9     3     2   ar
    10     1    12    1
    11     1     2   ar
    12     6     7    1
    13     6    20    1
    14    15    16   ar
    15     7     8    1
    16    12    19   ar
    17     2    10    1
    18    16    18   ar
    19    20    21   ar
    20    20    26   ar
    21    10     8   am
    22    10    11    1
    23     8     9    2
    24    19    18   ar
    25    21    22   ar
    26    26    25   ar
    27    22    24    1
    28    22    23   ar
    29    25    23   ar
    30    25    27    1
