@<TRIPOS>MOLECULE
ZINC59016222_replica-1.pdb
 27 29 0 0 0
SMALL
GASTEIGER

@<TRIPOS>ATOM
      1  N2        -0.7680   32.5590   57.0770 N.pl3   0  <0>0       -0.1960
      2  C10        0.2850   33.2650   57.6280 C.cat   0  <0>0        0.2845
      3  N3         1.5540   32.9170   57.5930 N.2     0  <0>0       -0.3098
      4  C11        2.2900   33.8350   58.2270 C.1     0  <0>0        0.1339
      5  N4         1.4990   34.7800   58.6750 N.2     0  <0>0       -0.1060
      6  N5         0.1930   34.4360   58.2940 N.pl3   0  <0>0       -0.1864
      7  H9        -1.6730   32.9000   57.1520 H       0  <0>0        0.1783
      8  H16       -0.6170   34.9390   58.4750 H       0  <0>0        0.1791
      9  N1        -0.5280   31.3490   56.4100 N.2     0  <0>0       -0.1768
     10  C9        -0.5600   31.3060   55.1090 C.2     0  <0>0        0.1177
     11  C8        -0.3170   30.0830   54.4350 C.2     0  <0>0        0.0222
     12  C7        -1.3260   29.4500   53.8010 C.2     0  <0>0        0.0016
     13  C4        -1.0740   28.1800   53.1010 C.ar    0  <0>0        0.0000
     14  C3        -0.2970   27.1860   53.7030 C.ar    0  <0>0        0.0000
     15  C2        -0.0660   26.0000   53.0400 C.ar    0  <0>0        0.0000
     16  C1        -0.6010   25.7910   51.7800 C.ar    0  <0>0        0.0000
     17  C6        -1.3710   26.7700   51.1770 C.ar    0  <0>0        0.0000
     18  C5        -1.6110   27.9620   51.8270 C.ar    0  <0>0        0.0000
     19  S1         4.0400   33.7830   58.4290 S.3     0  <0>0       -0.0243
     20  C12        4.3780   35.0710   59.6590 C.3     0  <0>0        0.0997
     21  C13        5.4340   36.0070   59.1290 C.ar    0  <0>0       -0.0102
     22  C18        5.8320   35.9230   57.8080 C.ar    0  <0>0       -0.0025
     23  C17        6.7970   36.7850   57.3200 C.ar    0  <0>0        0.0111
     24  C16        7.3700   37.7250   58.1560 C.ar    0  <0>0        0.0577
     25  C15        6.9750   37.8070   59.4800 C.ar    0  <0>0        0.0111
     26 Cl          8.5850   38.8040   57.5460 Cl      0  <0>0       -0.0822
     27  C14        6.0070   36.9480   59.9650 C.ar    0  <0>0       -0.0025
@<TRIPOS>BOND
     1    17    16   ar
     2    17    18   ar
     3    16    15   ar
     4    18    13   ar
     5    15    14   ar
     6    13    14   ar
     7    13    12    1
     8    12    11    2
     9    11    10    1
    10    10     9    2
    11     9     1    1
    12     1     7    1
    13     1     2    1
    14    23    22   ar
    15    23    24   ar
    16    26    24    1
    17     3     2    2
    18     3     4    2
    19     2     6    1
    20    22    21   ar
    21    24    25   ar
    22     4    19    1
    23     4     5    2
    24     6     8    1
    25     6     5    1
    26    19    20    1
    27    21    20    1
    28    21    27   ar
    29    25    27   ar
