@<TRIPOS>MOLECULE
ZINC06791820_replica-1.pdb
 24 26 0 0 0
SMALL
GASTEIGER

@<TRIPOS>ATOM
      1  C8         7.2950   36.0810   57.4040 C.2     0  <0>0        0.0942
      2  C9         8.3540   36.7120   58.0740 C.2     0  <0>0        0.0589
      3  C10        8.2940   37.9070   57.2190 C.2     0  <0>0        0.2367
      4  O1         8.8920   38.9630   57.1320 O.2     0  <0>0       -0.2831
      5  C11        7.1680   37.2460   56.5110 C.2     0  <0>0        0.2476
      6  O2         6.4440   37.5420   55.5800 O.2     0  <0>0       -0.2818
      7  N1         6.6450   34.8830   57.5320 N.pl3   0  <0>0       -0.3099
      8  H7         7.0800   34.0620   57.2510 H       0  <0>0        0.1523
      9  C4         5.3540   34.8420   58.0660 C.ar    0  <0>0        0.0481
     10  C3         4.2940   35.4070   57.3670 C.ar    0  <0>0        0.0108
     11  C2         3.0200   35.3650   57.8970 C.ar    0  <0>0       -0.0144
     12  C1         1.8690   35.9770   57.1390 C.3     0  <0>0        0.0316
     13  C7         2.7960   34.7570   59.1200 C.ar    0  <0>0        0.0307
     14  C6         3.8510   34.1990   59.8200 C.ar    0  <0>0        0.0077
     15 Br          1.0480   34.6960   59.8380 Br      0  <0>0       -0.0493
     16  C5         5.1280   34.2380   59.2960 C.ar    0  <0>0        0.0151
     17  C12        9.2070   36.3250   59.2100 C.ar    0  <0>0        0.0047
     18  C17        9.3580   37.1860   60.3010 C.ar    0  <0>0        0.0033
     19  C16       10.1560   36.8190   61.3610 C.ar    0  <0>0        0.0369
     20  C15       10.8140   35.5950   61.3470 C.ar    0  <0>0        0.1387
     21  C14       10.6670   34.7340   60.2650 C.ar    0  <0>0        0.0369
     22  C13        9.8660   35.0900   59.2040 C.ar    0  <0>0        0.0033
     23  O3        11.6010   35.2370   62.3940 O.3     0  <0>0       -0.4714
     24  C18       12.2970   33.9940   62.2870 C.3     0  <0>0        0.2525
@<TRIPOS>BOND
     1     6     5    2
     2     5     3    1
     3     5     1    1
     4     4     3    2
     5    12    11    1
     6     3     2    1
     7     8     7    1
     8    10    11   ar
     9    10     9   ar
    10     1     7    1
    11     1     2    2
    12     7     9    1
    13    11    13   ar
    14     9    16   ar
    15     2    17    1
    16    13    14   ar
    17    13    15    1
    18    22    17   ar
    19    22    21   ar
    20    17    18   ar
    21    16    14   ar
    22    21    20   ar
    23    18    19   ar
    24    20    19   ar
    25    20    23    1
    26    24    23    1
