@<TRIPOS>MOLECULE
ZINC27992128_replica-1.pdb
 36 40 0 0 0
SMALL
GASTEIGER

@<TRIPOS>ATOM
      1  C12        0.0260   29.0450   55.2410 C.3     0  <0>0        0.0656
      2  C11       -0.0940   30.5140   55.6530 C.3     0  <0>0        0.0985
      3  N1         1.2310   31.1360   55.6340 N.am    0  <0>0       -0.2977
      4  C10        1.4550   32.2680   56.3310 C.2     0  <0>0        0.2803
      5  O2         0.5560   32.7730   56.9750 O.2     0  <0>0       -0.2668
      6  H8         2.0460   30.6790   55.0520 H       0  <0>0        0.1499
      7  C7         2.7860   32.8920   56.3130 C.ar    0  <0>0        0.1943
      8  C6         3.8090   32.5760   57.1470 C.ar    0  <0>0        0.0199
      9  C5         4.9240   33.4430   56.7670 C.ar    0  <0>0        0.0297
     10  C28        3.7980   31.5420   58.2430 C.3     0  <0>0        0.0345
     11  C4         6.2320   33.6050   57.2300 C.ar    0  <0>0       -0.0194
     12  C8         4.4500   34.2280   55.7000 C.ar    0  <0>0        0.1446
     13  C3         7.0480   34.5300   56.6410 C.ar    0  <0>0       -0.0083
     14  C29        6.7410   32.7650   58.3720 C.3     0  <0>0        0.0311
     15  C2         6.5870   35.3040   55.5850 C.ar    0  <0>0       -0.0191
     16  C1         7.5050   36.3150   54.9460 C.3     0  <0>0        0.0311
     17  C9         5.2990   35.1640   55.1180 C.ar    0  <0>0        0.0332
     18  O1         3.1740   33.8680   55.4650 O.2     0  <0>0       -0.4493
     19  C13       -0.5630   28.1710   56.3190 C.ar    0  <0>0       -0.0165
     20  C18       -1.8190   28.4500   56.8230 C.ar    0  <0>0       -0.0008
     21  C17       -2.3630   27.6510   57.8110 C.ar    0  <0>0        0.0366
     22  C16       -1.6450   26.5680   58.2970 C.ar    0  <0>0        0.1387
     23  C15       -0.3840   26.2900   57.7900 C.ar    0  <0>0        0.0366
     24  C14        0.1520   27.0890   56.7970 C.ar    0  <0>0       -0.0008
     25  O3        -2.1760   25.7800   59.2690 O.3     0  <0>0       -0.4714
     26  C19       -2.0990   24.3670   59.0720 C.3     0  <0>0        0.2525
     27  C20       -0.7200   28.8220   53.9510 C.ar    0  <0>0        0.0016
     28  C23       -0.7250   27.5960   53.1490 C.ar    0  <0>0        0.0134
     29  C22       -1.5550   27.8590   52.0440 C.ar    0  <0>0        0.0563
     30  C24       -0.1120   26.3480   53.2800 C.ar    0  <0>0        0.0012
     31  N2        -2.0130   29.1490   52.1780 N.ar    0  <0>0       -0.3522
     32  C27       -1.7560   26.8640   51.0920 C.ar    0  <0>0        0.0170
     33  C21       -1.5100   29.7050   53.3230 C.ar    0  <0>0        0.0684
     34  H2        -2.6800   29.7370   51.5280 H       0  <0>0        0.1660
     35  C26       -1.1430   25.6400   51.2400 C.ar    0  <0>0        0.0015
     36  C25       -0.3230   25.3860   52.3320 C.ar    0  <0>0        0.0001
@<TRIPOS>BOND
     1    32    35   ar
     2    32    29   ar
     3    35    36   ar
     4    34    31    1
     5    29    31   ar
     6    29    28   ar
     7    31    33   ar
     8    36    30   ar
     9    28    30   ar
    10    28    27   ar
    11    33    27   ar
    12    27     1    1
    13    16    15    1
    14     6     3    1
    15    17    15   ar
    16    17    12   ar
    17     1     2    1
    18     1    19    1
    19    18    12   ar
    20    18     7   ar
    21    15    13   ar
    22     3     2    1
    23     3     4   am
    24    12     9   ar
    25     7     4    1
    26     7     8   ar
    27    19    24   ar
    28    19    20   ar
    29     4     5    2
    30    13    11   ar
    31     9     8   ar
    32     9    11   ar
    33    24    23   ar
    34    20    21   ar
    35     8    10    1
    36    11    14    1
    37    23    22   ar
    38    21    22   ar
    39    22    25    1
    40    26    25    1
