@<TRIPOS>MOLECULE
ZINC41652730_replica-1.pdb
 28 32 0 0 0
SMALL
GASTEIGER

@<TRIPOS>ATOM
      1  N1         3.1000   33.3200   59.5930 N.3     0  <0>0       -0.2269
      2  C6         4.4190   33.7600   59.1180 C.3     0  <0>0        0.1085
      3  C7         4.2500   34.6570   57.9200 C.ar    0  <0>0        0.0626
      4  C8         3.0630   34.6780   57.2080 C.ar    0  <0>0        0.1407
      5  C9         2.9180   35.5110   56.0980 C.ar    0  <0>0        0.0370
      6  C10        3.9480   36.3160   55.7030 C.ar    0  <0>0        0.0094
      7  C11        5.1490   36.3070   56.4130 C.ar    0  <0>0        0.0765
      8  C12        5.3080   35.4720   57.5300 C.ar    0  <0>0        0.1487
      9  O1         6.5440   35.6340   58.0480 O.3     0  <0>0       -0.4503
     10  C13        7.2680   36.5430   57.3510 C.2     0  <0>0        0.1840
     11  C14        8.5410   36.9270   57.6160 C.2     0  <0>0        0.0408
     12  C21        6.4210   37.0360   56.2540 C.2     0  <0>0        0.2327
     13  O2         6.7070   37.8610   55.4030 O.2     0  <0>0       -0.2832
     14  O3         2.0170   33.8930   57.5800 O.3     0  <0>0       -0.4583
     15  C22        2.3010   32.8080   58.4670 C.3     0  <0>0        0.2851
     16  C15        9.2240   36.4300   58.8190 C.ar    0  <0>0        0.0032
     17  C20        9.8020   35.1550   58.8220 C.ar    0  <0>0        0.0010
     18  C19       10.4460   34.6980   59.9520 C.ar    0  <0>0        0.0114
     19  C18       10.5130   35.4930   61.0850 C.ar    0  <0>0        0.0577
     20  C17        9.9380   36.7540   61.0910 C.ar    0  <0>0        0.0114
     21 Cl         11.3190   34.9050   62.5050 Cl      0  <0>0       -0.0822
     22  C16        9.2960   37.2270   59.9670 C.ar    0  <0>0        0.0010
     23  C5         3.2310   32.3060   60.6480 C.3     0  <0>0        0.1088
     24  C3         1.8850   32.0590   61.2790 C.ar    0  <0>0        0.0236
     25  C2         1.1030   32.9150   61.9830 C.ar    0  <0>0        0.0041
     26  C1        -0.1080   32.4660   62.4750 C.ar    0  <0>0        0.0072
     27  C4        -0.4790   31.1830   62.2380 C.ar    0  <0>0        0.0352
     28  S1         0.9060   30.5670   61.2960 S.2     0  <0>0       -0.0894
@<TRIPOS>BOND
     1    13    12    2
     2     6     5   ar
     3     6     7   ar
     4     5     4   ar
     5    12     7    1
     6    12    10    1
     7     7     8   ar
     8     4    14    1
     9     4     3   ar
    10    10    11    2
    11    10     9    1
    12     8     3   ar
    13     8     9    1
    14    14    15    1
    15    11    16    1
    16     3     2    1
    17    15     1    1
    18    16    17   ar
    19    16    22   ar
    20    17    18   ar
    21     2     1    1
    22     1    23    1
    23    18    19   ar
    24    22    20   ar
    25    23    24    1
    26    19    20   ar
    27    19    21    1
    28    24    28   ar
    29    24    25   ar
    30    28    27   ar
    31    25    26   ar
    32    27    26   ar
