@<TRIPOS>MOLECULE
ZINC43198560_replica-1.pdb
 25 26 0 0 0
SMALL
GASTEIGER

@<TRIPOS>ATOM
      1  C1         4.1500   32.9190   57.6370 C.3     0  <0>0        0.0024
      2  C2         4.5440   34.0930   56.7380 C.3     0  <0>0        0.0248
      3  C3         4.0780   33.9990   55.2530 C.3     0  <0>0        0.0024
      4  C4         4.1340   35.4550   54.7340 C.3     0  <0>0        0.0025
      5  C5         4.6270   36.2900   55.9550 C.3     0  <0>0        0.0273
      6  C6         3.9660   35.4960   57.1360 C.3     0  <0>0        0.0044
      7  C7         4.4790   35.9630   58.5000 C.3     0  <0>0        0.0002
      8  C8         2.4380   35.5280   57.0640 C.3     0  <0>0        0.0002
      9  C9         6.1270   35.8930   56.1180 C.3     0  <0>0        0.1145
     10  C10        6.0680   34.4170   56.6700 C.3     0  <0>0        0.1107
     11  C11        6.6980   34.3100   58.0600 C.3     0  <0>0        0.0292
     12  C12        7.8390   33.2910   58.0250 C.3     0  <0>0        0.0025
     13  C13        8.8770   33.6520   59.0900 C.3     0  <0>0        0.0001
     14  C14        9.5520   34.9730   58.7150 C.3     0  <0>0        0.0003
     15  C15       10.1540   35.6120   59.9700 C.3     0  <0>0        0.0047
     16  C16        9.5010   36.9740   60.2130 C.3     0  <0>0        0.0260
     17  C17        8.4090   36.8310   61.2420 C.2     0  <0>0       -0.0261
     18  C18        7.1650   36.6870   60.8610 C.2     0  <0>0       -0.0049
     19  O1         6.7240   33.5380   55.7540 O.3     0  <0>0       -0.3845
     20  H30        6.1730   32.8040   55.4510 H       0  <0>0        0.2103
     21  C19        6.8100   36.8020   57.1420 C.3     0  <0>0        0.0552
     22  C20        7.5070   37.9300   56.4270 C.2     0  <0>0       -0.0236
     23  C21        8.4390   38.6160   57.0390 C.2     0  <0>0       -0.0048
     24  O2         6.8000   35.9620   54.8600 O.3     0  <0>0       -0.3841
     25  H36        6.2090   36.0890   54.1040 H       0  <0>0        0.2103
@<TRIPOS>BOND
     1    25    24    1
     2     4     3    1
     3     4     5    1
     4    24     9    1
     5     3     2    1
     6    20    19    1
     7    19    10    1
     8     5     9    1
     9     5     6    1
    10     9    10    1
    11     9    21    1
    12    22    23    2
    13    22    21    1
    14    10     2    1
    15    10    11    1
    16     2     6    1
    17     2     1    1
    18     8     6    1
    19     6     7    1
    20    12    11    1
    21    12    13    1
    22    14    13    1
    23    14    15    1
    24    15    16    1
    25    16    17    1
    26    18    17    2
