@<TRIPOS>MOLECULE
ZINC13724787_replica-1.pdb
 28 29 0 0 0
SMALL
GASTEIGER

@<TRIPOS>ATOM
      1  C7        10.1640   35.9040   60.5430 C.ar    0  <0>0       -0.0397
      2  C8         9.9470   34.9130   59.6020 C.ar    0  <0>0        0.0338
      3  C9         9.0530   35.1270   58.5660 C.ar    0  <0>0        0.1727
      4  C10        8.3760   36.3390   58.4730 C.ar    0  <0>0        0.1831
      5  C11        8.5970   37.3280   59.4190 C.ar    0  <0>0        0.0942
      6  C12        9.4880   37.1060   60.4550 C.ar    0  <0>0        0.0083
      7 Cl          7.7550   38.8410   59.3080 Cl      0  <0>0       -0.0790
      8  C6        11.1370   35.6690   61.6690 C.3     0  <0>0       -0.0540
      9  N1        11.9190   34.4500   61.3880 N.4     0  <0>0        0.3890
     10  H27       11.2840   33.7060   61.0750 H       0  <0>0       -0.0838
     11  H28       12.6030   34.6490   60.6490 H       0  <0>0       -0.0838
     12  C3        12.6280   34.0050   62.6030 C.3     0  <0>0       -0.0455
     13  C4        14.1170   33.8310   62.2940 C.3     0  <0>0       -0.0215
     14  C5        12.4550   35.0450   63.7100 C.3     0  <0>0       -0.0215
     15  C2        12.0430   32.6680   63.0630 C.3     0  <0>0       -0.0195
     16  C1        13.1630   31.6320   63.1690 C.3     0  <0>0       -0.0021
     17  O2         8.8390   34.1550   57.6390 O.3     0  <0>0       -0.4724
     18  C20        8.3010   32.9170   58.1100 C.3     0  <0>0        0.2057
     19  C21        7.6710   32.1580   56.9400 C.3     0  <0>0        0.0512
     20  O1         7.4970   36.5530   57.4570 O.3     0  <0>0       -0.4666
     21  C13        6.1110   36.3600   57.7460 C.3     0  <0>0        0.2344
     22  C14        5.4300   35.7420   56.5510 C.ar    0  <0>0        0.0486
     23  C19        4.0480   35.7050   56.4840 C.ar    0  <0>0        0.1396
     24  C18        3.4240   35.1370   55.3870 C.ar    0  <0>0        0.0294
     25  F1         3.3080   36.2240   57.4890 F       0  <0>0       -0.2044
     26  C17        4.1810   34.6080   54.3590 C.ar    0  <0>0        0.0023
     27  C16        5.5620   34.6450   54.4270 C.ar    0  <0>0       -0.0001
     28  C15        6.1860   35.2170   55.5200 C.ar    0  <0>0        0.0016
@<TRIPOS>BOND
     1    26    27   ar
     2    26    24   ar
     3    27    28   ar
     4    24    23   ar
     5    28    22   ar
     6    23    22   ar
     7    23    25    1
     8    22    21    1
     9    19    18    1
    10    20    21    1
    11    20     4    1
    12    17    18    1
    13    17     3    1
    14     4     3   ar
    15     4     5   ar
    16     3     2   ar
    17     7     5    1
    18     5     6   ar
    19     2     1   ar
    20     6     1   ar
    21     1     8    1
    22    11     9    1
    23    10     9    1
    24     9     8    1
    25     9    12    1
    26    13    12    1
    27    12    15    1
    28    12    14    1
    29    15    16    1
