@<TRIPOS>MOLECULE
ZINC57692656_replica-1.pdb
 23 24 0 0 0
SMALL
GASTEIGER

@<TRIPOS>ATOM
      1  C11        7.9070   37.2540   58.8040 C.3     0  <0>0        0.1137
      2  C12        6.6890   37.4170   59.6130 C.1     0  <0>0        0.0765
      3  N1         5.7480   37.5440   60.2370 N.1     0  <0>0       -0.1956
      4  C10        8.4100   38.6280   58.3550 C.3     0  <0>0        0.0234
      5  C9         8.7250   38.5920   56.8580 C.3     0  <0>0        0.0488
      6  C8         7.4170   38.5970   56.0630 C.3     0  <0>0        0.2054
      7  O1         7.3550   37.4270   55.2440 O.3     0  <0>0       -0.4755
      8  C6         6.8510   36.3010   55.8130 C.ar    0  <0>0        0.1379
      9  C5         7.6420   35.1670   55.9310 C.ar    0  <0>0        0.0326
     10  C4         7.1260   34.0240   56.5090 C.ar    0  <0>0       -0.0192
     11  C3         5.8230   34.0080   56.9730 C.ar    0  <0>0       -0.0083
     12  C20        7.9850   32.7920   56.6380 C.3     0  <0>0        0.0311
     13  C2         5.0330   35.1370   56.8570 C.ar    0  <0>0       -0.0192
     14  C1         3.6130   35.1160   57.3620 C.3     0  <0>0        0.0311
     15  C7         5.5420   36.2810   56.2730 C.ar    0  <0>0        0.0326
     16  C13        8.9710   36.5760   59.6290 C.ar    0  <0>0       -0.0084
     17  C18        9.3980   37.1530   60.8120 C.ar    0  <0>0       -0.0026
     18  C17       10.3680   36.5350   61.5730 C.ar    0  <0>0        0.0100
     19  C16       10.9260   35.3300   61.1440 C.ar    0  <0>0        0.0684
     20  C15       10.4950   34.7560   59.9470 C.ar    0  <0>0        0.0100
     21  C19       11.9360   34.6860   61.9270 C.1     0  <0>0        0.1004
     22  C14        9.5210   35.3820   59.1960 C.ar    0  <0>0       -0.0026
     23  N2        12.7380   34.1740   62.5490 N.1     0  <0>0       -0.1908
@<TRIPOS>BOND
     1     7     8    1
     2     7     6    1
     3     8     9   ar
     4     8    15   ar
     5     9    10   ar
     6     6     5    1
     7    15    13   ar
     8    10    12    1
     9    10    11   ar
    10    13    11   ar
    11    13    14    1
    12     5     4    1
    13     4     1    1
    14     1     2    1
    15     1    16    1
    16    22    16   ar
    17    22    20   ar
    18     2     3    3
    19    16    17   ar
    20    20    19   ar
    21    17    18   ar
    22    19    18   ar
    23    19    21    1
    24    21    23    3
