@<TRIPOS>MOLECULE
ZINC37281495_replica-1.pdb
 18 19 0 0 0
SMALL
GASTEIGER

@<TRIPOS>ATOM
      1  C7        11.7710   34.9950   62.0720 C.ar    0  <0>0        0.0585
      2  C8        11.3350   34.4220   60.8850 C.ar    0  <0>0        0.0553
      3  C9        10.3700   35.0590   60.1230 C.ar    0  <0>0        0.1777
      4  C10        9.8380   36.2730   60.5480 C.ar    0  <0>0        0.1774
      5  C11       10.2740   36.8430   61.7330 C.ar    0  <0>0        0.0528
      6  C12       11.2340   36.2050   62.4970 C.ar    0  <0>0        0.0739
      7 Cl         11.7730   36.9180   63.9850 Cl      0  <0>0       -0.0809
      8  O1         8.9140   36.6900   59.6300 O.3     0  <0>0       -0.4346
      9  C13        9.1840   35.9260   58.4400 C.3     0  <0>0        0.4294
     10  O2         9.7810   34.7140   58.9400 O.3     0  <0>0       -0.4346
     11  N1        12.7460   34.3530   62.8430 N.pl3   0  <0>0       -0.3333
     12  H14       13.2640   34.8580   63.4890 H       0  <0>0        0.1468
     13  C5        12.9850   32.9170   62.6750 C.3     0  <0>0        0.0691
     14  C6        11.8650   32.1300   63.3580 C.3     0  <0>0        0.0212
     15  C4        14.3280   32.5460   63.3060 C.3     0  <0>0        0.0195
     16  C3        15.2000   33.7980   63.4250 C.3     0  <0>0        0.0017
     17  C2        15.7770   33.8850   64.8390 C.3     0  <0>0        0.0001
     18  C1        17.1810   34.4910   64.7800 C.3     0  <0>0        0.0000
@<TRIPOS>BOND
     1     9    10    1
     2     9     8    1
     3    10     3    1
     4     8     4    1
     5     3     4   ar
     6     3     2   ar
     7     4     5   ar
     8     2     1   ar
     9     5     6   ar
    10     1     6   ar
    11     1    11    1
    12     6     7    1
    13    13    11    1
    14    13    15    1
    15    13    14    1
    16    11    12    1
    17    15    16    1
    18    16    17    1
    19    18    17    1
