@<TRIPOS>MOLECULE
ZINC48488753_replica-1.pdb
 20 20 0 0 0
SMALL
GASTEIGER

@<TRIPOS>ATOM
      1  C5        10.4200   35.6460   60.6110 C.ar    0  <0>0        0.0516
      2  C6        10.1010   35.0550   59.3960 C.ar    0  <0>0        0.0152
      3  C7         9.1180   35.6040   58.5970 C.ar    0  <0>0        0.0077
      4  C8         8.4460   36.7480   59.0110 C.ar    0  <0>0        0.0328
      5  C9         8.7650   37.3390   60.2260 C.ar    0  <0>0        0.0077
      6  C10        9.7450   36.7870   61.0270 C.ar    0  <0>0        0.0152
      7  N2        11.4180   35.0890   61.4220 N.am    0  <0>0       -0.2683
      8  C4        11.2990   33.8210   61.8630 C.2     0  <0>0        0.3047
      9  N1        12.3010   33.2540   62.5640 N.am    0  <0>0       -0.2846
     10  O1        10.2880   33.1880   61.6270 O.2     0  <0>0       -0.2525
     11  H6        13.1070   33.7590   62.7520 H       0  <0>0        0.1513
     12  H7        12.1950   35.6170   61.6670 H       0  <0>0        0.1564
     13  C3        12.1720   31.8750   63.0420 C.3     0  <0>0        0.1174
     14  C2        13.4460   31.4610   63.7320 C.2     0  <0>0       -0.0049
     15  C1        14.4660   32.2810   63.7690 C.2     0  <0>0       -0.0032
     16  S1         7.1910   37.4490   57.9920 S.3     0  <0>0       -0.0144
     17  C11        8.0920   38.0580   56.5400 C.3     0  <0>0        0.4477
     18  F1         7.2450   38.8600   55.7680 F       0  <0>0       -0.1600
     19  F2         9.1960   38.8100   56.9570 F       0  <0>0       -0.1600
     20  F3         8.5310   36.9720   55.7760 F       0  <0>0       -0.1600
@<TRIPOS>BOND
     1    18    17    1
     2    20    17    1
     3    17    19    1
     4    17    16    1
     5    16     4    1
     6     3     4   ar
     7     3     2   ar
     8     4     5   ar
     9     2     1   ar
    10     5     6   ar
    11     1     6   ar
    12     1     7    1
    13     7    12    1
    14     7     8   am
    15    10     8    2
    16     8     9   am
    17     9    11    1
    18     9    13    1
    19    13    14    1
    20    14    15    2
