@<TRIPOS>MOLECULE
ZINC57692604_replica-1.pdb
 23 24 0 0 0
SMALL
GASTEIGER

@<TRIPOS>ATOM
      1  C11        8.2390   36.4930   57.7620 C.3     0  <0>0        0.1137
      2  C12        8.4860   37.8680   57.3010 C.1     0  <0>0        0.0765
      3  N1         8.6760   38.9310   56.9440 N.1     0  <0>0       -0.1956
      4  C10        8.5550   35.5110   56.6320 C.3     0  <0>0        0.0234
      5  C9         7.2620   35.1430   55.9010 C.3     0  <0>0        0.0487
      6  C8         6.9520   33.6620   56.1260 C.3     0  <0>0        0.2054
      7  O1         5.7350   33.5360   56.8610 O.3     0  <0>0       -0.4761
      8  C7         5.7050   34.0830   58.1050 C.ar    0  <0>0        0.1305
      9  C2         6.4600   33.5260   59.1270 C.ar    0  <0>0        0.0118
     10  C1         7.3150   32.3140   58.8590 C.3     0  <0>0        0.0342
     11  C3         6.4330   34.0870   60.3890 C.ar    0  <0>0       -0.0013
     12  C4         5.6490   35.1980   60.6360 C.ar    0  <0>0       -0.0004
     13  C5         4.8920   35.7530   59.6200 C.ar    0  <0>0       -0.0013
     14  C6         4.9150   35.1950   58.3570 C.ar    0  <0>0        0.0118
     15  C20        4.0890   35.7990   57.2510 C.3     0  <0>0        0.0342
     16  C13        9.1220   36.1960   58.9470 C.ar    0  <0>0       -0.0084
     17  C18        9.2140   37.1070   59.9840 C.ar    0  <0>0       -0.0026
     18  C17       10.0170   36.8380   61.0730 C.ar    0  <0>0        0.0100
     19  C16       10.7450   35.6480   61.1240 C.ar    0  <0>0        0.0684
     20  C15       10.6510   34.7350   60.0710 C.ar    0  <0>0        0.0100
     21  C19       11.5830   35.3650   62.2490 C.1     0  <0>0        0.1004
     22  C14        9.8420   35.0140   58.9900 C.ar    0  <0>0       -0.0026
     23  N2        12.2490   35.1400   63.1420 N.1     0  <0>0       -0.1908
@<TRIPOS>BOND
     1     5     6    1
     2     5     4    1
     3     6     7    1
     4     4     1    1
     5     7     8    1
     6     3     2    3
     7    15    14    1
     8     2     1    1
     9     1    16    1
    10     8    14   ar
    11     8     9   ar
    12    14    13   ar
    13    10     9    1
    14    16    22   ar
    15    16    17   ar
    16    22    20   ar
    17     9    11   ar
    18    13    12   ar
    19    17    18   ar
    20    20    19   ar
    21    11    12   ar
    22    18    19   ar
    23    19    21    1
    24    21    23    3
