@<TRIPOS>MOLECULE
ZINC12784087_replica-1.pdb
 18 19 0 0 0
SMALL
GASTEIGER

@<TRIPOS>ATOM
      1  C1        -0.5920   25.4820   51.1020 C.3     0  <0>0        0.0311
      2  C2        -0.7070   26.5030   52.2030 C.ar    0  <0>0       -0.0207
      3  C3        -0.0780   26.2840   53.4150 C.ar    0  <0>0        0.0055
      4  C4        -0.1810   27.2200   54.4280 C.ar    0  <0>0        0.0687
      5  C5        -0.9160   28.3810   54.2270 C.ar    0  <0>0        0.1512
      6  C6        -1.5450   28.5970   53.0090 C.ar    0  <0>0        0.0687
      7  C7        -1.4390   27.6580   52.0000 C.ar    0  <0>0        0.0055
      8 Br         -2.5480   30.1760   52.7300 Br      0  <0>0       -0.0458
      9 Br          0.6790   26.9190   56.0850 Br      0  <0>0       -0.0458
     10  O1        -1.0230   29.2990   55.2220 O.3     0  <0>0       -0.4695
     11  C8        -2.1680   29.2040   56.0720 C.3     0  <0>0        0.2361
     12  C9        -1.7220   29.0220   57.4990 C.ar    0  <0>0        0.0708
     13  C11       -2.1100   28.0680   58.3790 C.ar    0  <0>0        0.1539
     14  O2        -1.4470   28.3100   59.5190 O.2     0  <0>0       -0.3583
     15  C12       -3.0940   26.9540   58.1270 C.3     0  <0>0        0.0751
     16  N1        -0.7270   29.2760   59.4170 N.ar    0  <0>0       -0.0820
     17  C10       -0.7960   29.8020   58.2280 C.ar    0  <0>0        0.1001
     18  C13       -0.0410   31.0070   57.7300 C.3     0  <0>0        0.0554
@<TRIPOS>BOND
     1     1     2    1
     2     7     2   ar
     3     7     6   ar
     4     2     3   ar
     5     8     6    1
     6     6     5   ar
     7     3     4   ar
     8     5     4   ar
     9     5    10    1
    10     4     9    1
    11    10    11    1
    12    11    12    1
    13    12    17   ar
    14    12    13   ar
    15    18    17    1
    16    15    13    1
    17    17    16   ar
    18    13    14   ar
    19    16    14   ar
