@<TRIPOS>MOLECULE
ZINC37293981_replica-1.pdb
 20 21 0 0 0
SMALL
GASTEIGER

@<TRIPOS>ATOM
      1  C7        11.6980   34.9680   62.0450 C.ar    0  <0>0        0.0446
      2  C8        11.3150   34.3470   60.8620 C.ar    0  <0>0        0.0144
      3  C9        10.4480   34.9830   59.9990 C.ar    0  <0>0        0.0036
      4  C10        9.9560   36.2490   60.3120 C.ar    0  <0>0        0.0293
      5  C11       10.3430   36.8690   61.4990 C.ar    0  <0>0        0.0036
      6  C12       11.2050   36.2280   62.3630 C.ar    0  <0>0        0.0144
      7  N1        12.5770   34.3220   62.9180 N.pl3   0  <0>0       -0.3340
      8  H14       12.9810   34.8130   63.6510 H       0  <0>0        0.1468
      9  C5        12.8890   32.9040   62.7270 C.3     0  <0>0        0.0691
     10  C6        11.7330   32.0520   63.2550 C.3     0  <0>0        0.0212
     11  C4        14.1690   32.5560   63.4890 C.3     0  <0>0        0.0195
     12  C3        15.1410   33.7350   63.4200 C.3     0  <0>0        0.0017
     13  C2        15.7830   33.9490   64.7920 C.3     0  <0>0        0.0001
     14  C1        17.1840   34.5380   64.6140 C.3     0  <0>0        0.0000
     15  C13        9.0240   36.9350   59.3850 C.2     0  <0>0        0.1560
     16  N2         8.5070   36.4240   58.2440 N.2     0  <0>0       -0.3720
     17  C15        7.7310   37.3160   57.7020 C.2     0  <0>0        0.2529
     18  O1         7.7320   38.4170   58.4640 O.2     0  <0>0       -0.4469
     19  C16        6.9580   37.1400   56.4210 C.3     0  <0>0        0.1099
     20  C14        8.5370   38.1930   59.5200 C.3     0  <0>0        0.2661
@<TRIPOS>BOND
     1    19    17    1
     2    17    16    2
     3    17    18    1
     4    16    15    2
     5    18    20    1
     6    15    20    1
     7    15     4    1
     8     3     4   ar
     9     3     2   ar
    10     4     5   ar
    11     2     1   ar
    12     5     6   ar
    13     1     6   ar
    14     1     7    1
    15     9     7    1
    16     9    10    1
    17     9    11    1
    18     7     8    1
    19    12    11    1
    20    12    13    1
    21    14    13    1
