@<TRIPOS>MOLECULE
ZINC39478958_replica-1.pdb
 31 34 0 0 0
SMALL
GASTEIGER

@<TRIPOS>ATOM
      1  C10        7.4490   38.0060   60.1080 C.3     0  <0>0        0.0640
      2  C11        6.9430   38.8820   58.9790 C.2     0  <0>0        0.0991
      3  N4         7.8080   38.7750   58.0240 N.2     0  <0>0       -0.1511
      4  N5         8.8620   37.9280   58.3530 N.2     0  <0>0       -0.1524
      5  C12        8.7400   37.4300   59.5580 C.2     0  <0>0        0.0837
      6  C9         6.4490   36.8900   60.4150 C.3     0  <0>0       -0.0689
      7  N3         6.1180   36.1740   59.1750 N.4     0  <0>0        0.3878
      8  H15        6.9530   36.0590   58.6210 H       0  <0>0       -0.0839
      9  H28        5.4380   36.7050   58.6530 H       0  <0>0       -0.0839
     10  C8         5.5620   34.8550   59.5050 C.3     0  <0>0       -0.0373
     11  C7         4.0610   34.8940   59.3730 C.2     0  <0>0        0.0359
     12  C6         3.3940   35.7000   58.5440 C.3     0  <0>0        0.0641
     13  C5         1.9360   35.3540   58.7930 C.3     0  <0>0        0.1191
     14  N2         2.0120   34.3070   59.8270 N.pl3   0  <0>0       -0.1458
     15  N1         3.2090   34.1200   60.0810 N.2     0  <0>0       -0.1743
     16  C2         1.2840   34.8110   57.5200 C.3     0  <0>0        0.0205
     17  C1         2.3690   34.3070   56.5670 C.3     0  <0>0        0.0018
     18  C3         0.4840   35.9250   56.8410 C.3     0  <0>0        0.0018
     19  C4         0.3460   33.6570   57.8800 C.3     0  <0>0        0.0018
     20  C13        9.6580   36.5050   60.2370 C.ar    0  <0>0        0.0156
     21  C18       10.2990   36.8950   61.4190 C.ar    0  <0>0        0.0012
     22  C17       11.1520   36.0290   62.0530 C.ar    0  <0>0        0.0000
     23  C16       11.3880   34.7630   61.5160 C.ar    0  <0>0        0.0000
     24  C15       10.7550   34.3740   60.3350 C.ar    0  <0>0        0.0000
     25  C14        9.8980   35.2350   59.7000 C.ar    0  <0>0        0.0012
     26  C19       12.3140   33.8300   62.2020 C.ar    0  <0>0        0.0000
     27  C24       13.6710   34.1330   62.2950 C.ar    0  <0>0        0.0000
     28  C23       14.5280   33.2630   62.9390 C.ar    0  <0>0        0.0000
     29  C22       14.0430   32.0870   63.4820 C.ar    0  <0>0        0.0000
     30  C21       12.6980   31.7770   63.3880 C.ar    0  <0>0        0.0000
     31  C20       11.8310   32.6430   62.7520 C.ar    0  <0>0        0.0000
@<TRIPOS>BOND
     1    17    16    1
     2    18    16    1
     3    16    19    1
     4    16    13    1
     5     3     4    1
     6     3     2    2
     7     4     5    2
     8    12    13    1
     9    12    11    1
    10     8     7    1
    11     9     7    1
    12    13    14    1
    13     2     1    1
    14     7    10    1
    15     7     6    1
    16    11    10    1
    17    11    15    2
    18     5     1    1
    19     5    20    1
    20    25    20   ar
    21    25    24   ar
    22    14    15    1
    23     1     6    1
    24    20    21   ar
    25    24    23   ar
    26    21    22   ar
    27    23    22   ar
    28    23    26    1
    29    26    27   ar
    30    26    31   ar
    31    27    28   ar
    32    31    30   ar
    33    28    29   ar
    34    30    29   ar
