@<TRIPOS>MOLECULE
ZINC50499331_replica-1.pdb
 18 18 0 0 0
SMALL
GASTEIGER

@<TRIPOS>ATOM
      1  C1         7.3020   36.2570   55.0010 C.3     0  <0>0        0.0001
      2  C2         8.5130   36.3150   55.9340 C.3     0  <0>0        0.0024
      3  C3         8.4100   37.5530   56.8270 C.3     0  <0>0        0.0002
      4  C4         7.1280   37.4760   57.6590 C.3     0  <0>0        0.0024
      5  C5         7.1620   36.2200   58.5310 C.3     0  <0>0        0.0272
      6  C6         7.2660   34.9810   57.6390 C.3     0  <0>0        0.1159
      7  C7         8.5480   35.0580   56.8060 C.3     0  <0>0        0.0296
      8  O1         7.2970   33.8080   58.4540 O.3     0  <0>0       -0.3455
      9  C8         8.6060   33.2700   58.6480 C.3     0  <0>0        0.2519
     10  C9         8.9270   33.2460   60.1200 C.2     0  <0>0        0.3474
     11  O2         9.0170   32.1910   60.7020 O.2     0  <0>0       -0.2473
     12  O3         9.1130   34.3980   60.7850 O.3     0  <0>0       -0.4506
     13  C10       10.2850   35.1500   60.4640 C.3     0  <0>0        0.1692
     14  C11        9.9790   36.6440   60.5820 C.3     0  <0>0        0.0473
     15  C12       11.4080   34.7810   61.4340 C.3     0  <0>0        0.0473
     16  C13        5.8800   36.1420   59.3640 C.3     0  <0>0        0.0023
     17  C14        5.7410   37.4120   60.2050 C.3     0  <0>0        0.0001
     18  C15        4.6740   36.0130   58.4320 C.3     0  <0>0        0.0001
@<TRIPOS>BOND
     1     1     2    1
     2     2     7    1
     3     2     3    1
     4     7     6    1
     5     3     4    1
     6     6     8    1
     7     6     5    1
     8     4     5    1
     9    18    16    1
    10     8     9    1
    11     5    16    1
    12     9    10    1
    13    16    17    1
    14    10    11    2
    15    10    12    1
    16    13    14    1
    17    13    12    1
    18    13    15    1
