@<TRIPOS>MOLECULE
ZINC01112671_replica-1.pdb
 30 34 0 0 0
SMALL
GASTEIGER

@<TRIPOS>ATOM
      1  N1         0.2210   28.1540   55.2020 N.ar    0  <0>0       -0.3221
      2  C8         0.4150   29.4450   54.8280 C.ar    0  <0>0        0.0718
      3  C9        -0.0440   30.2810   55.8090 C.ar    0  <0>0       -0.0022
      4  C10       -0.5640   29.4160   56.8850 C.ar    0  <0>0        0.0133
      5  C11       -0.3750   28.0960   56.4440 C.ar    0  <0>0        0.0599
      6  C12       -0.7770   27.0420   57.2580 C.ar    0  <0>0        0.0172
      7  C13       -1.3470   27.3000   58.4860 C.ar    0  <0>0        0.0015
      8  C14       -1.5350   28.6050   58.9180 C.ar    0  <0>0        0.0001
      9  C15       -1.1470   29.6620   58.1250 C.ar    0  <0>0        0.0012
     10  C16       -0.0190   31.7430   55.7950 C.3     0  <0>0        0.0483
     11  C17        0.8450   32.4180   56.6030 C.3     0  <0>0        0.1346
     12  S2         2.6300   32.3500   56.6660 S.3     0  <0>0       -0.0831
     13  C19        2.8660   33.5330   57.9840 C.2     0  <0>0        0.1175
     14  N2         1.5970   33.8930   58.2800 N.am    0  <0>0       -0.2400
     15  S1         4.3270   34.0740   58.6920 S.2     0  <0>0       -0.0275
     16  C18        0.5720   33.3680   57.6320 C.2     0  <0>0        0.2408
     17  O1        -0.5720   33.6890   57.9030 O.2     0  <0>0       -0.2736
     18  C20        1.3540   34.8750   59.3410 C.3     0  <0>0        0.1634
     19  C21        0.8830   34.1650   60.5830 C.ar    0  <0>0        0.1434
     20  O2        -0.2430   34.4360   61.2640 O.2     0  <0>0       -0.4530
     21  C24       -0.3420   33.6070   62.3160 C.ar    0  <0>0        0.1792
     22  C23        0.7290   32.7930   62.3170 C.ar    0  <0>0        0.0435
     23  C22        1.5180   33.1530   61.2000 C.ar    0  <0>0        0.0380
     24  C7         0.5910   26.9870   54.3970 C.3     0  <0>0        0.1327
     25  C4        -0.2820   26.9240   53.1710 C.ar    0  <0>0        0.0004
     26  C3        -0.3910   25.7430   52.4600 C.ar    0  <0>0       -0.0024
     27  C2        -1.1920   25.6860   51.3350 C.ar    0  <0>0       -0.0003
     28  C1        -1.8850   26.8090   50.9210 C.ar    0  <0>0       -0.0000
     29  C6        -1.7760   27.9890   51.6330 C.ar    0  <0>0       -0.0003
     30  C5        -0.9790   28.0450   52.7610 C.ar    0  <0>0       -0.0024
@<TRIPOS>BOND
     1    28    27   ar
     2    28    29   ar
     3    27    26   ar
     4    29    30   ar
     5    26    25   ar
     6    30    25   ar
     7    25    24    1
     8    24     1    1
     9     2     1   ar
    10     2     3   ar
    11     1     5   ar
    12    10     3    1
    13    10    11    1
    14     3     4   ar
    15     5     4   ar
    16     5     6   ar
    17    11    12    1
    18    11    16    1
    19    12    13    1
    20     4     9   ar
    21     6     7   ar
    22    16    17    2
    23    16    14   am
    24    13    14    1
    25    13    15    2
    26     9     8   ar
    27    14    18    1
    28     7     8   ar
    29    18    19    1
    30    19    23   ar
    31    19    20   ar
    32    23    22   ar
    33    20    21   ar
    34    21    22   ar
