@<TRIPOS>MOLECULE
ZINC00198257_replica-1.pdb
 27 29 0 0 0
SMALL
GASTEIGER

@<TRIPOS>ATOM
      1  C1         8.0470   38.5760   58.3480 C.3     0  <0>0        0.0630
      2  C2         8.6250   37.2010   58.5610 C.2     0  <0>0        0.1074
      3  C3         8.3650   36.1860   57.6580 C.3     0  <0>0        0.1211
      4  C4         8.9240   34.9270   57.8910 C.2     0  <0>0        0.1793
      5  N1         9.6790   34.7480   58.9700 N.2     0  <0>0       -0.3287
      6  C5         9.9000   35.7450   59.8140 C.1     0  <0>0        0.1381
      7  N2         9.3820   36.9500   59.6170 N.2     0  <0>0       -0.3482
      8  N3         8.6950   33.8810   57.0110 N.pl3   0  <0>0       -0.2905
      9  H9         9.0460   33.9220   56.1070 H       0  <0>0        0.1543
     10  C12        7.9630   32.7730   57.4220 C.ar    0  <0>0        0.0499
     11  C17        6.6450   32.6150   56.9990 C.ar    0  <0>0        0.0147
     12  C16        5.9220   31.5290   57.4010 C.ar    0  <0>0        0.0041
     13  C15        6.5080   30.5710   58.2400 C.ar    0  <0>0        0.0348
     14  C14        7.8340   30.7340   58.6620 C.ar    0  <0>0        0.0041
     15  C13        8.5510   31.8210   58.2510 C.ar    0  <0>0        0.0147
     16  C18        5.7350   29.4020   58.6750 C.2     0  <0>0        0.1735
     17  O1         4.5230   29.4540   58.7080 O.2     0  <0>0       -0.2913
     18  C19        6.4460   28.1370   59.0810 C.3     0  <0>0        0.0773
     19  C20        7.5020   36.4330   56.4480 C.3     0  <0>0        0.0412
     20  C21        6.0550   36.2170   56.8100 C.2     0  <0>0       -0.0253
     21  C22        5.1280   36.3180   55.8890 C.2     0  <0>0       -0.0049
     22  C6        10.7490   35.5090   61.0080 C.ar    0  <0>0        0.0856
     23  C11       10.9740   36.5380   61.9200 C.ar    0  <0>0        0.0120
     24  C10       11.7640   36.3120   63.0300 C.ar    0  <0>0        0.0007
     25  C9        12.3310   35.0680   63.2360 C.ar    0  <0>0        0.0000
     26  C8        12.1110   34.0430   62.3330 C.ar    0  <0>0        0.0007
     27  C7        11.3190   34.2550   61.2230 C.ar    0  <0>0        0.0120
@<TRIPOS>BOND
     1    21    20    2
     2     9     8    1
     3    19    20    1
     4    19     3    1
     5    11    12   ar
     6    11    10   ar
     7     8    10    1
     8     8     4    1
     9    12    13   ar
    10    10    15   ar
    11     3     4    1
    12     3     2    1
    13     4     5    2
    14    13    14   ar
    15    13    16    1
    16    15    14   ar
    17     1     2    1
    18     2     7    2
    19    16    17    2
    20    16    18    1
    21     5     6    2
    22     7     6    2
    23     6    22    1
    24    22    27   ar
    25    22    23   ar
    26    27    26   ar
    27    23    24   ar
    28    26    25   ar
    29    24    25   ar
