@<TRIPOS>MOLECULE
ZINC60340397_replica-1.pdb
 27 29 0 0 0
SMALL
GASTEIGER

@<TRIPOS>ATOM
      1  C1         8.0710   38.4080   59.3720 C.3     0  <0>0        0.0629
      2  C2         8.8980   37.1690   59.5970 C.2     0  <0>0        0.1063
      3  C3         8.9030   36.1270   58.6960 C.3     0  <0>0        0.1782
      4  S1        10.0330   35.0030   59.5010 S.3     0  <0>0       -0.0678
      5  C4        10.3700   35.9450   60.8550 C.2     0  <0>0        0.1784
      6  N1         9.6540   37.0290   60.6580 N.2     0  <0>0       -0.4035
      7  C12        8.1800   35.9810   57.4290 C.2     0  <0>0        0.2460
      8  O2         8.5900   36.5370   56.4260 O.2     0  <0>0       -0.2732
      9  N2         7.0610   35.2310   57.3730 N.am    0  <0>0       -0.2538
     10  C13        6.3970   35.0000   56.0880 C.3     0  <0>0        0.1201
     11  C14        6.5340   34.6740   58.5440 C.ar    0  <0>0        0.0837
     12  C19        5.6620   35.4110   59.3360 C.ar    0  <0>0        0.1538
     13  C18        5.1380   34.8550   60.4900 C.ar    0  <0>0        0.0332
     14  F1         5.3210   36.6680   58.9770 F       0  <0>0       -0.2029
     15  C17        5.4920   33.5710   60.8610 C.ar    0  <0>0        0.0320
     16  C16        6.3650   32.8350   60.0780 C.ar    0  <0>0        0.1415
     17  C15        6.8870   33.3840   58.9190 C.ar    0  <0>0        0.0468
     18  F2         6.7080   31.5810   60.4430 F       0  <0>0       -0.2041
     19  C5        11.2800   35.6240   62.0120 C.3     0  <0>0        0.2700
     20  O1        12.2680   34.6790   61.5940 O.3     0  <0>0       -0.4673
     21  C6        12.3480   33.5180   62.2970 C.ar    0  <0>0        0.1393
     22  C11       13.5720   33.0800   62.7790 C.ar    0  <0>0        0.0378
     23  C10       13.6500   31.9040   63.4990 C.ar    0  <0>0        0.0145
     24  C9        12.5090   31.1570   63.7290 C.ar    0  <0>0        0.0579
     25  C8        11.2870   31.5880   63.2450 C.ar    0  <0>0        0.0145
     26 Cl         12.6110   29.6750   64.6280 Cl      0  <0>0       -0.0822
     27  C7        11.2050   32.7680   62.5290 C.ar    0  <0>0        0.0378
@<TRIPOS>BOND
     1    10     9    1
     2     8     7    2
     3     9     7   am
     4     9    11    1
     5     7     3    1
     6    11    17   ar
     7    11    12   ar
     8     3     4    1
     9     3     2    1
    10    17    16   ar
    11    14    12    1
    12    12    13   ar
    13     1     2    1
    14     4     5    1
    15     2     6    2
    16    16    18    1
    17    16    15   ar
    18    13    15   ar
    19     6     5    2
    20     5    19    1
    21    20    19    1
    22    20    21    1
    23    21    27   ar
    24    21    22   ar
    25    27    25   ar
    26    22    23   ar
    27    25    24   ar
    28    23    24   ar
    29    24    26    1
