@<TRIPOS>MOLECULE
ZINC63597777_replica-1.pdb
 27 30 0 0 0
SMALL
GASTEIGER

@<TRIPOS>ATOM
      1  N1         0.8200   31.8400   58.4480 N.am    0  <0>0       -0.2318
      2  C8         0.0290   30.9210   57.8530 C.2     0  <0>0        0.2085
      3  N2        -0.7640   30.9040   56.8120 N.2     0  <0>0       -0.3209
      4  C9        -1.7110   29.9760   56.6590 C.1     0  <0>0        0.1803
      5  N3        -1.9590   28.9900   57.5060 N.2     0  <0>0       -0.2631
      6  C10       -1.1510   28.7380   58.5400 C.1     0  <0>0        0.2090
      7  O1        -1.4000   27.8670   59.3510 O.2     0  <0>0       -0.2121
      8  C11        0.0870   29.5910   58.6430 C.3     0  <0>0        0.2396
      9  S1         0.1080   30.3610   60.3200 S.3     0  <0>0       -0.0660
     10  C12        0.9360   31.8670   59.8040 C.2     0  <0>0        0.1216
     11  S2         1.6880   33.0540   60.7820 S.2     0  <0>0       -0.0272
     12  S3        -2.7120   30.0720   55.2120 S.3     0  <0>0       -0.0126
     13  C13       -1.5140   30.2020   53.8570 C.3     0  <0>0        0.1006
     14  C14       -1.1910   28.8250   53.3380 C.ar    0  <0>0       -0.0106
     15  C19       -0.4590   27.9470   54.1150 C.ar    0  <0>0       -0.0076
     16  C18       -0.1660   26.6820   53.6410 C.ar    0  <0>0       -0.0221
     17  C17       -0.5970   26.2980   52.3850 C.ar    0  <0>0       -0.0043
     18  C20        0.6280   25.7230   54.4910 C.3     0  <0>0        0.0310
     19  C16       -1.3260   27.1770   51.6060 C.ar    0  <0>0       -0.0006
     20  C15       -1.6220   28.4400   52.0820 C.ar    0  <0>0       -0.0034
     21  C5         1.5250   32.7640   57.6670 C.ar    0  <0>0        0.0585
     22  C4         1.0000   34.0310   57.4460 C.ar    0  <0>0        0.0149
     23  C3         1.6970   34.9410   56.6760 C.ar    0  <0>0       -0.0030
     24  C2         2.9170   34.5920   56.1260 C.ar    0  <0>0       -0.0218
     25  C1         3.6750   35.5880   55.2850 C.3     0  <0>0        0.0310
     26  C7         3.4400   33.3300   56.3390 C.ar    0  <0>0       -0.0030
     27  C6         2.7500   32.4180   57.1130 C.ar    0  <0>0        0.0149
@<TRIPOS>BOND
     1    19    20   ar
     2    19    17   ar
     3    20    14   ar
     4    17    16   ar
     5    14    13    1
     6    14    15   ar
     7    16    15   ar
     8    16    18    1
     9    13    12    1
    10    12     4    1
    11    25    24    1
    12    24    26   ar
    13    24    23   ar
    14    26    27   ar
    15     4     3    2
    16     4     5    2
    17    23    22   ar
    18     3     2    2
    19    27    21   ar
    20    22    21   ar
    21     5     6    2
    22    21     1    1
    23     2     1    1
    24     2     8    1
    25     1    10    1
    26     6     8    1
    27     6     7    2
    28     8     9    1
    29    10     9    1
    30    10    11    2
