@<TRIPOS>MOLECULE
ZINC37778104_replica-1.pdb
 21 22 0 0 0
SMALL
GASTEIGER

@<TRIPOS>ATOM
      1  N1        12.5730   34.8770   62.1540 N.pl3   0  <0>0       -0.3266
      2  H9        13.2230   35.1470   61.4860 H       0  <0>0        0.1472
      3  C8        12.6050   33.5800   62.6790 C.ar    0  <0>0        0.0793
      4  C3        13.7900   33.0690   63.2050 C.ar    0  <0>0        0.1512
      5  C4        13.8140   31.7870   63.7300 C.ar    0  <0>0        0.0339
      6  C5        12.6660   31.0160   63.7260 C.ar    0  <0>0       -0.0188
      7  C6        11.4920   31.5210   63.2000 C.ar    0  <0>0       -0.0028
      8  C16       12.6960   29.6220   64.2970 C.3     0  <0>0        0.0311
      9  C7        11.4590   32.7990   62.6740 C.ar    0  <0>0        0.0171
     10  O1        14.9180   33.8280   63.2070 O.3     0  <0>0       -0.4742
     11  C2        15.6110   33.9570   64.4500 C.3     0  <0>0        0.2056
     12  C1        17.0230   34.4880   64.1950 C.3     0  <0>0        0.0512
     13  C9        11.5550   35.8270   62.6110 C.3     0  <0>0        0.1167
     14  C10       10.5180   36.0090   61.5330 C.ar    0  <0>0        0.0271
     15  C15        9.4000   36.7880   61.7730 C.ar    0  <0>0        0.1379
     16  C14        8.4490   36.9600   60.7800 C.ar    0  <0>0        0.0317
     17  F1         9.2380   37.3870   62.9730 F       0  <0>0       -0.2044
     18  C13        8.6120   36.3430   59.5540 C.ar    0  <0>0        0.0319
     19  C12        9.7280   35.5600   59.3160 C.ar    0  <0>0        0.1400
     20  C11       10.6810   35.3920   60.3060 C.ar    0  <0>0        0.0292
     21  F2         9.8870   34.9580   58.1170 F       0  <0>0       -0.2042
@<TRIPOS>BOND
     1    21    19    1
     2    19    18   ar
     3    19    20   ar
     4    18    16   ar
     5    20    14   ar
     6    16    15   ar
     7     2     1    1
     8    14    15   ar
     9    14    13    1
    10    15    17    1
    11     1    13    1
    12     1     3    1
    13     9     3   ar
    14     9     7   ar
    15     3     4   ar
    16     7     6   ar
    17     4    10    1
    18     4     5   ar
    19    10    11    1
    20     6     5   ar
    21     6     8    1
    22    12    11    1
