@<TRIPOS>MOLECULE
ZINC41299790_replica-1.pdb
 20 20 0 0 0
SMALL
GASTEIGER

@<TRIPOS>ATOM
      1  C5        11.5790   34.9460   61.8930 C.ar    0  <0>0       -0.0225
      2  C6        11.0490   34.3400   60.7700 C.ar    0  <0>0       -0.0046
      3  C7        10.0920   34.9960   60.0170 C.ar    0  <0>0       -0.0046
      4  C8         9.6670   36.2590   60.3880 C.ar    0  <0>0       -0.0220
      5  C9        10.1980   36.8640   61.5120 C.ar    0  <0>0       -0.0046
      6  C10       11.1510   36.2060   62.2670 C.ar    0  <0>0       -0.0046
      7  C11        8.6250   36.9740   59.5680 C.3     0  <0>0        0.0314
      8  C12        8.8170   36.6300   58.0900 C.3     0  <0>0        0.0891
      9  C13        8.5540   37.8530   57.2510 C.2     0  <0>0        0.2197
     10  O1         8.0870   37.7360   56.1370 O.2     0  <0>0       -0.2753
     11  N1         8.8390   39.0780   57.7360 N.am    0  <0>0       -0.3288
     12  H17        9.2130   39.1720   58.6270 H       0  <0>0        0.1449
     13  H18        8.6700   39.8650   57.1960 H       0  <0>0        0.1449
     14  C14        7.2310   36.5320   60.0170 C.3     0  <0>0        0.0045
     15  C15        6.3070   37.7500   60.0830 C.3     0  <0>0        0.0003
     16  C16        6.6700   35.5200   59.0170 C.3     0  <0>0        0.0003
     17  C3        12.6220   34.2300   62.7130 C.3     0  <0>0        0.0223
     18  C4        13.9450   34.2020   61.9450 C.3     0  <0>0        0.0047
     19  C2        12.1610   32.7980   62.9870 C.3     0  <0>0        0.0044
     20  C1        13.3810   31.9050   63.2230 C.3     0  <0>0        0.0003
@<TRIPOS>BOND
     1    10     9    2
     2    13    11    1
     3     9    11   am
     4     9     8    1
     5    11    12    1
     6     8     7    1
     7    16    14    1
     8     7    14    1
     9     7     4    1
    10     3     4   ar
    11     3     2   ar
    12    14    15    1
    13     4     5   ar
    14     2     1   ar
    15     5     6   ar
    16     1     6   ar
    17     1    17    1
    18    18    17    1
    19    17    19    1
    20    19    20    1
