@<TRIPOS>MOLECULE
ZINC14702944_replica-1.pdb
 26 29 0 0 0
SMALL
GASTEIGER

@<TRIPOS>ATOM
      1  C1        10.1610   34.8540   59.5600 C.ar    0  <0>0        0.0001
      2  C2         9.4460   35.7450   58.8030 C.ar    0  <0>0        0.0029
      3  C3         9.1390   37.0110   59.3170 C.ar    0  <0>0        0.0364
      4  C4         9.5700   37.3650   60.6010 C.ar    0  <0>0        0.0029
      5  C5        10.2810   36.4700   61.3550 C.ar    0  <0>0        0.0001
      6  C6        10.5850   35.2080   60.8410 C.ar    0  <0>0        0.0000
      7  C13        8.3710   37.9680   58.5070 C.2     0  <0>0        0.1931
      8  O1         7.9350   38.9790   59.0150 O.2     0  <0>0       -0.2895
      9  C14        8.1260   37.6910   57.0470 C.3     0  <0>0        0.1644
     10  N1         6.9340   36.8520   56.9010 N.am    0  <0>0       -0.2502
     11  C20        6.6690   36.2390   55.7220 C.2     0  <0>0        0.2431
     12  C19        5.5210   35.4510   55.6350 C.3     0  <0>0        0.1677
     13  O2         7.4130   36.3730   54.7650 O.2     0  <0>0       -0.2735
     14  C16        4.6570   35.2900   56.7320 C.2     0  <0>0        0.0750
     15  S1         4.7590   34.4760   54.3650 S.3     0  <0>0       -0.0987
     16  N2         5.0150   35.9530   57.8800 N.2     0  <0>0       -0.2510
     17  C17        3.5410   34.4730   56.5070 C.2     0  <0>0        0.0223
     18  C15        6.0860   36.6770   57.9480 C.3     0  <0>0        0.2219
     19  C18        3.3520   33.8980   55.3000 C.2     0  <0>0        0.0329
     20  C7        11.3590   34.2430   61.6580 C.ar    0  <0>0        0.0000
     21  C12       12.6380   34.5710   62.1050 C.ar    0  <0>0        0.0005
     22  C11       13.3530   33.6690   62.8650 C.ar    0  <0>0        0.0067
     23  C10       12.8030   32.4380   63.1830 C.ar    0  <0>0        0.0346
     24  C9        11.5330   32.1080   62.7410 C.ar    0  <0>0        0.0067
     25 Br         13.7900   31.2070   64.2250 Br      0  <0>0       -0.0490
     26  C8        10.8070   33.0050   61.9860 C.ar    0  <0>0        0.0005
@<TRIPOS>BOND
     1    15    19    1
     2    15    12    1
     3    13    11    2
     4    19    17    2
     5    12    11    1
     6    12    14    1
     7    11    10   am
     8    17    14    1
     9    14    16    2
    10    10     9    1
    11    10    18    1
    12     9     7    1
    13    16    18    1
    14     7     8    2
    15     7     3    1
    16     2     3   ar
    17     2     1   ar
    18     3     4   ar
    19     1     6   ar
    20     4     5   ar
    21     6     5   ar
    22     6    20    1
    23    20    26   ar
    24    20    21   ar
    25    26    24   ar
    26    21    22   ar
    27    24    23   ar
    28    22    23   ar
    29    23    25    1
