@<TRIPOS>MOLECULE
ZINC20430745_replica-1.pdb
 21 21 0 0 0
SMALL
GASTEIGER

@<TRIPOS>ATOM
      1  C7        -2.3360   29.7190   54.0670 C.3     0  <0>0        0.1466
      2  C8        -3.0930   30.5460   53.0250 C.3     0  <0>0        0.0311
      3  C6        -2.1070   30.5530   55.3010 C.2     0  <0>0        0.2402
      4  N1        -0.8540   30.7560   55.7540 N.am    0  <0>0       -0.3046
      5  H13        0.0020   30.3130   55.2240 H       0  <0>0        0.1494
      6  O1        -3.0500   31.0420   55.8860 O.2     0  <0>0       -0.2733
      7  C4        -0.6320   31.5670   56.9540 C.3     0  <0>0        0.0717
      8  C5        -0.1210   30.6740   58.0860 C.3     0  <0>0        0.0213
      9  C3         0.4060   32.6510   56.6510 C.3     0  <0>0        0.0196
     10  C2         0.2620   33.7910   57.6630 C.3     0  <0>0        0.0017
     11  C1         1.6220   34.0800   58.3010 C.3     0  <0>0        0.0001
     12  N2        -1.0450   29.3010   53.5130 N.pl3   0  <0>0       -0.3266
     13  H17       -0.2000   30.0050   53.4970 H       0  <0>0        0.1472
     14  C9        -0.8870   28.0070   53.0060 C.ar    0  <0>0        0.0513
     15  C14       -0.1890   27.0530   53.7360 C.ar    0  <0>0        0.0499
     16  C13       -0.0350   25.7760   53.2320 C.ar    0  <0>0        0.0376
     17 Br          0.5490   27.5030   55.4180 Br      0  <0>0       -0.0476
     18  C12       -0.5750   25.4470   52.0000 C.ar    0  <0>0        0.1407
     19  C11       -1.2710   26.3970   51.2710 C.ar    0  <0>0        0.0309
     20  F1        -0.4230   24.1980   51.5080 F       0  <0>0       -0.2042
     21  C10       -1.4280   27.6750   51.7710 C.ar    0  <0>0        0.0171
@<TRIPOS>BOND
     1    19    21   ar
     2    19    18   ar
     3    20    18    1
     4    21    14   ar
     5    18    16   ar
     6    14    12    1
     7    14    15   ar
     8     2     1    1
     9    16    15   ar
    10    13    12    1
    11    12     1    1
    12    15    17    1
    13     1     3    1
    14     5     4    1
    15     3     4   am
    16     3     6    2
    17     4     7    1
    18     9     7    1
    19     9    10    1
    20     7     8    1
    21    10    11    1
