@<TRIPOS>MOLECULE
ZINC36197635_replica-1.pdb
 22 22 0 0 0
SMALL
GASTEIGER

@<TRIPOS>ATOM
      1  C9        11.5900   33.4160   61.8430 C.ar    0  <0>0        0.0479
      2  C10       12.7680   34.1520   61.8590 C.ar    0  <0>0        0.0158
      3  C11       13.8630   33.6860   62.5600 C.ar    0  <0>0        0.0153
      4  C12       13.7870   32.4830   63.2490 C.ar    0  <0>0        0.0455
      5  C13       12.6080   31.7470   63.2320 C.ar    0  <0>0        0.0855
      6  C14       11.5110   32.2160   62.5350 C.ar    0  <0>0        0.0196
      7  N1        10.4810   33.8880   61.1320 N.pl3   0  <0>0       -0.3075
      8  C4        10.5560   35.1640   60.4170 C.3     0  <0>0        0.0907
      9  C2         9.7620   36.2250   61.1820 C.3     0  <0>0        0.0198
     10  C1        10.6650   36.8830   62.2270 C.3     0  <0>0        0.0018
     11  C3         9.2550   37.2860   60.2030 C.3     0  <0>0        0.0018
     12  C5         9.2430   33.1040   61.1010 C.3     0  <0>0        0.0907
     13  C6         8.6190   33.1890   59.7070 C.3     0  <0>0        0.0198
     14  C7         8.5770   31.7930   59.0810 C.3     0  <0>0        0.0018
     15  C8         7.1960   33.7410   59.8170 C.3     0  <0>0        0.0018
     16  C15       12.5260   30.4410   63.9780 C.3     0  <0>0        0.4197
     17  F1        13.1070   30.5880   65.2420 F       0  <0>0       -0.1658
     18  F2        11.1850   30.0700   64.1230 F       0  <0>0       -0.1658
     19  F3        13.2090   29.4510   63.2630 F       0  <0>0       -0.1658
     20  N2        14.8970   32.0100   63.9590 N.pl3   0  <0>0       -0.3570
     21  H22       14.7750   31.5960   64.8290 H       0  <0>0        0.1424
     22  H23       15.7860   32.0960   63.5830 H       0  <0>0        0.1424
@<TRIPOS>BOND
     1    14    13    1
     2    13    15    1
     3    13    12    1
     4    11     9    1
     5     8     7    1
     6     8     9    1
     7    12     7    1
     8     7     1    1
     9     9    10    1
    10     1     2   ar
    11     1     6   ar
    12     2     3   ar
    13     6     5   ar
    14     3     4   ar
    15     5     4   ar
    16     5    16    1
    17     4    20    1
    18    19    16    1
    19    22    20    1
    20    20    21    1
    21    16    18    1
    22    16    17    1
