@<TRIPOS>MOLECULE
ZINC60375936_replica-1.pdb
 22 24 0 0 0
SMALL
GASTEIGER

@<TRIPOS>ATOM
      1  C1         8.3660   38.3950   57.5460 C.3     0  <0>0        0.0342
      2  C2         7.9490   37.0270   58.0890 C.3     0  <0>0        0.1522
      3  C3         7.8850   36.0070   56.9700 C.2     0  <0>0        0.2531
      4  O1         8.7970   35.6410   56.2590 O.2     0  <0>0       -0.2723
      5  N1         6.6040   35.5880   56.9310 N.am    0  <0>0       -0.2079
      6  C4         5.8580   36.1960   57.8600 C.2     0  <0>0        0.3106
      7  O2         4.6730   35.9840   58.0190 O.2     0  <0>0       -0.2521
      8  N2         6.5670   37.0690   58.5980 N.am    0  <0>0       -0.2802
      9  H4         6.2340   37.6200   59.3240 H       0  <0>0        0.1516
     10  C10        8.8980   36.5750   59.1690 C.ar    0  <0>0        0.0320
     11  S2         9.7440   35.0130   59.3410 S.2     0  <0>0       -0.0825
     12  C13       10.6210   35.3650   60.8560 C.ar    0  <0>0        0.0636
     13  C12       10.2090   36.6290   61.1300 C.ar    0  <0>0        0.0135
     14 Br         11.8080   34.2620   61.8300 Br      0  <0>0       -0.0419
     15  C11        9.3260   37.2490   60.2650 C.ar    0  <0>0        0.0052
     16  C5         6.0930   34.5910   55.9870 C.3     0  <0>0        0.1355
     17  C6         6.1620   33.2230   56.6150 C.ar    0  <0>0        0.0285
     18  S1         7.5620   32.1280   56.7680 S.2     0  <0>0       -0.0782
     19  C9         6.7420   30.7880   57.6160 C.ar    0  <0>0        0.0867
     20  C8         5.4730   31.2540   57.7160 C.ar    0  <0>0        0.0182
     21 Cl          7.3980   29.2760   58.1640 Cl      0  <0>0       -0.0752
     22  C7         5.1760   32.5030   57.2030 C.ar    0  <0>0        0.0053
@<TRIPOS>BOND
     1    16    17    1
     2    16     5    1
     3     4     3    2
     4    17    18   ar
     5    17    22   ar
     6    18    19   ar
     7     5     3   am
     8     5     6   am
     9     3     2    1
    10    22    20   ar
    11     1     2    1
    12    19    20   ar
    13    19    21    1
    14     6     7    2
    15     6     8   am
    16     2     8    1
    17     2    10    1
    18     8     9    1
    19    10    11   ar
    20    10    15   ar
    21    11    12   ar
    22    15    13   ar
    23    12    13   ar
    24    12    14    1
