@<TRIPOS>MOLECULE
ZINC13406732_replica-1.pdb
 27 27 0 0 0
SMALL
GASTEIGER

@<TRIPOS>ATOM
      1  C5         6.2270   33.3410   59.9570 C.ar    0  <0>0        0.0103
      2  C6         6.9190   34.5310   60.0060 C.ar    0  <0>0       -0.0030
      3  C7         6.2580   35.7330   59.7390 C.ar    0  <0>0        0.0067
      4  C8         4.8970   35.7220   59.4230 C.ar    0  <0>0       -0.0030
      5  C9         4.2130   34.5280   59.3760 C.ar    0  <0>0        0.0103
      6  C10        4.8740   33.3350   59.6370 C.ar    0  <0>0        0.1255
      7  C15        6.9960   37.0110   59.7910 C.3     0  <0>0        0.1359
      8  N1         7.3000   37.6520   58.6630 N.3     0  <0>0       -0.2787
      9  H33        7.6970   38.5360   58.6990 H       0  <0>0        0.1250
     10  C16        7.0350   37.0200   57.3680 C.3     0  <0>0        0.0966
     11  C17        8.3240   36.4910   56.7930 C.2     0  <0>0       -0.0090
     12  C18        8.5710   35.2050   56.8170 C.2     0  <0>0       -0.0035
     13  N2         7.3570   37.5250   60.9660 N.3     0  <0>0       -0.2787
     14  H27        6.8470   38.2530   61.3550 H       0  <0>0        0.1250
     15  C19        8.5240   36.9890   61.6720 C.3     0  <0>0        0.0966
     16  C20        9.7050   36.9560   60.7360 C.2     0  <0>0       -0.0090
     17  C21       10.3390   35.8300   60.5210 C.2     0  <0>0       -0.0035
     18  C2         6.9390   32.0440   60.2450 C.3     0  <0>0        0.0218
     19  C1         8.4180   32.3250   60.5170 C.3     0  <0>0        0.0045
     20  C3         6.8090   31.1130   59.0390 C.3     0  <0>0        0.0045
     21  C4         6.3120   31.3800   61.4720 C.3     0  <0>0        0.0045
     22  C11        2.7450   34.5160   59.0350 C.3     0  <0>0        0.0218
     23  C12        1.9510   33.9560   60.2180 C.3     0  <0>0        0.0045
     24  C13        2.2790   35.9420   58.7380 C.3     0  <0>0        0.0045
     25  C14        2.5130   33.6370   57.8050 C.3     0  <0>0        0.0045
     26  O1         4.1980   32.1590   59.5850 O.3     0  <0>0       -0.5061
     27  H12        4.5980   31.4990   59.0020 H       0  <0>0        0.2922
@<TRIPOS>BOND
     1    11    12    2
     2    11    10    1
     3    10     8    1
     4    25    22    1
     5     8     9    1
     6     8     7    1
     7    24    22    1
     8    27    26    1
     9    22     5    1
    10    22    23    1
    11    20    18    1
    12     5     4   ar
    13     5     6   ar
    14     4     3   ar
    15    26     6    1
    16     6     1   ar
    17     3     7    1
    18     3     2   ar
    19     7    13    1
    20     1     2   ar
    21     1    18    1
    22    18    19    1
    23    18    21    1
    24    17    16    2
    25    16    15    1
    26    13    14    1
    27    13    15    1
