@<TRIPOS>MOLECULE
ZINC41351256_replica-1.pdb
 30 33 0 0 0
SMALL
GASTEIGER

@<TRIPOS>ATOM
      1  C1         7.8650   37.9680   58.0780 C.3     0  <0>0        0.0313
      2  C2         8.2390   36.5080   58.0300 C.ar    0  <0>0       -0.0127
      3  C3         7.7720   35.7150   57.0200 C.ar    0  <0>0        0.0337
      4  C4         8.1140   34.3660   56.9740 C.ar    0  <0>0        0.1512
      5  C5         8.9300   33.8130   57.9480 C.ar    0  <0>0        0.0751
      6  C6         9.4140   34.6060   58.9810 C.ar    0  <0>0        0.1513
      7  C7         9.0660   35.9660   59.0140 C.ar    0  <0>0        0.0728
      8  C8         9.7250   36.5360   60.2030 C.2     0  <0>0        0.2324
      9  O1         9.6790   37.6860   60.6030 O.2     0  <0>0       -0.2832
     10  C9        10.4500   35.4030   60.8010 C.2     0  <0>0        0.1840
     11  C10       11.2110   35.4400   61.9230 C.2     0  <0>0        0.0409
     12  O2        10.2100   34.3140   60.0330 O.3     0  <0>0       -0.4501
     13  O3         7.6440   33.5860   55.9670 O.3     0  <0>0       -0.4229
     14  C17        6.6400   32.7380   56.2430 C.2     0  <0>0        0.3407
     15  O4         6.8810   31.6420   56.6920 O.2     0  <0>0       -0.2480
     16  C18        5.2130   33.1530   55.9910 C.3     0  <0>0        0.2007
     17 Cl          5.1120   34.0410   54.4260 Cl      0  <0>0       -0.0981
     18  C19        4.7460   34.0490   57.1090 C.ar    0  <0>0        0.0032
     19  C24        4.0950   35.2330   56.8210 C.ar    0  <0>0       -0.0025
     20  C23        3.6640   36.0530   57.8470 C.ar    0  <0>0       -0.0003
     21  C22        3.8920   35.6920   59.1610 C.ar    0  <0>0       -0.0000
     22  C21        4.5460   34.5100   59.4510 C.ar    0  <0>0       -0.0003
     23  C20        4.9750   33.6890   58.4250 C.ar    0  <0>0       -0.0025
     24  C11       12.0030   34.2660   62.3130 C.ar    0  <0>0        0.0054
     25  C16       13.4000   34.3340   62.3290 C.ar    0  <0>0        0.0297
     26  C15       14.1370   33.2280   62.7030 C.ar    0  <0>0        0.1401
     27  C14       13.4960   32.0490   63.0490 C.ar    0  <0>0        0.0296
     28  F1        15.4870   33.2930   62.7260 F       0  <0>0       -0.2042
     29  C13       12.1150   31.9720   63.0300 C.ar    0  <0>0        0.0023
     30  C12       11.3650   33.0700   62.6640 C.ar    0  <0>0        0.0002
@<TRIPOS>BOND
     1    17    16    1
     2    13    14    1
     3    13     4    1
     4    16    14    1
     5    16    18    1
     6    14    15    2
     7    19    18   ar
     8    19    20   ar
     9     4     3   ar
    10     4     5   ar
    11     3     2   ar
    12    18    23   ar
    13    20    21   ar
    14     5     6   ar
    15     2     1    1
    16     2     7   ar
    17    23    22   ar
    18     6     7   ar
    19     6    12    1
    20     7     8    1
    21    21    22   ar
    22    12    10    1
    23     8     9    2
    24     8    10    1
    25    10    11    2
    26    11    24    1
    27    24    25   ar
    28    24    30   ar
    29    25    26   ar
    30    30    29   ar
    31    26    28    1
    32    26    27   ar
    33    29    27   ar
