@<TRIPOS>MOLECULE
ZINC37532678_replica-1.pdb
 20 20 0 0 0
SMALL
GASTEIGER

@<TRIPOS>ATOM
      1  C1         8.7270   32.3960   60.0730 C.3     0  <0>0        0.0307
      2  C2         9.5730   33.5210   60.6110 C.ar    0  <0>0       -0.0263
      3  C3        10.6710   33.2420   61.4020 C.ar    0  <0>0       -0.0089
      4  C4        11.4480   34.2740   61.8950 C.ar    0  <0>0       -0.0234
      5  C5        11.1260   35.5850   61.5960 C.ar    0  <0>0       -0.0089
      6  C6        10.0280   35.8630   60.8040 C.ar    0  <0>0       -0.0263
      7  C7         9.2550   34.8310   60.3070 C.ar    0  <0>0       -0.0277
      8  C14        9.6770   37.2920   60.4790 C.3     0  <0>0        0.0307
      9  C8         8.0610   35.1340   59.4390 C.3     0  <0>0        0.0549
     10  C9         8.5360   35.5630   58.0490 C.3     0  <0>0        0.1148
     11  C10        7.4500   36.4050   57.3760 C.3     0  <0>0        0.0296
     12  C11        8.1040   37.4610   56.4830 C.3     0  <0>0        0.0024
     13  C12        7.1040   37.9210   55.4210 C.3     0  <0>0        0.0001
     14  C13        8.5300   38.6590   57.3360 C.3     0  <0>0        0.0001
     15  O1         8.7990   34.4030   57.2570 O.3     0  <0>0       -0.3841
     16  H18        9.1680   33.6610   57.7570 H       0  <0>0        0.2103
     17  C15       12.6450   33.9700   62.7590 C.3     0  <0>0        0.0189
     18  C16       13.9230   34.1310   61.9350 C.3     0  <0>0        0.0044
     19  C17       12.6770   34.9380   63.9440 C.3     0  <0>0        0.0044
     20  C18       12.5480   32.5330   63.2770 C.3     0  <0>0        0.0044
@<TRIPOS>BOND
     1    13    12    1
     2    12    14    1
     3    12    11    1
     4    15    16    1
     5    15    10    1
     6    11    10    1
     7    10     9    1
     8     9     7    1
     9     1     2    1
    10     7     2   ar
    11     7     6   ar
    12     8     6    1
    13     2     3   ar
    14     6     5   ar
    15     3     4   ar
    16     5     4   ar
    17     4    17    1
    18    18    17    1
    19    17    20    1
    20    17    19    1
