@<TRIPOS>MOLECULE
ZINC48619270_replica-1.pdb
 19 21 0 0 0
SMALL
GASTEIGER

@<TRIPOS>ATOM
      1  C8        -1.4160   30.1880   54.3590 C.2     0  <0>0        0.1923
      2  C9        -2.1540   29.8990   55.6060 C.2     0  <0>0        0.3738
      3  O1        -3.0810   29.1270   55.7520 O.2     0  <0>0       -0.2419
      4  O2        -1.5780   30.6780   56.5480 O.3     0  <0>0       -0.3907
      5  C10       -0.5830   31.3850   55.9760 C.2     0  <0>0        0.2905
      6  N1        -0.4710   31.1090   54.7010 N.2     0  <0>0       -0.3645
      7  C7        -1.6330   29.6390   53.1160 C.3     0  <0>0        0.0922
      8  C4        -1.2020   28.2650   52.8350 C.ar    0  <0>0       -0.0149
      9  C3        -1.5910   27.6350   51.6460 C.ar    0  <0>0       -0.0038
     10  C2        -1.1800   26.3450   51.3890 C.ar    0  <0>0       -0.0003
     11  C1        -0.3850   25.6720   52.3020 C.ar    0  <0>0       -0.0000
     12  C6         0.0030   26.2880   53.4800 C.ar    0  <0>0       -0.0003
     13  C5        -0.3990   27.5770   53.7530 C.ar    0  <0>0       -0.0038
     14  C11        0.2670   32.3390   56.6920 C.ar    0  <0>0        0.0964
     15  S1         1.9570   32.8020   56.3650 S.2     0  <0>0       -0.0744
     16  C14        2.1740   33.9140   57.6070 C.ar    0  <0>0        0.0640
     17  C13        0.9850   33.9220   58.2580 C.ar    0  <0>0        0.0139
     18 Br          3.7260   34.9180   58.0090 Br      0  <0>0       -0.0419
     19  C12       -0.0310   33.1110   57.8050 C.ar    0  <0>0        0.0133
@<TRIPOS>BOND
     1    10     9   ar
     2    10    11   ar
     3     9     8   ar
     4    11    12   ar
     5     8     7    1
     6     8    13   ar
     7     7     1    1
     8    12    13   ar
     9     1     6    2
    10     1     2    1
    11     6     5    2
    12     2     3    2
    13     2     4    1
    14     5     4    1
    15     5    14    1
    16    15    14   ar
    17    15    16   ar
    18    14    19   ar
    19    16    18    1
    20    16    17   ar
    21    19    17   ar
