@<TRIPOS>MOLECULE
ZINC36778555_replica-1.pdb
 22 23 0 0 0
SMALL
GASTEIGER

@<TRIPOS>ATOM
      1  C1        -2.8250   30.3540   55.5600 C.3     0  <0>0        0.0220
      2  C2        -1.5170   31.0390   55.9610 C.3     0  <0>0        0.0785
      3  C3        -1.0140   30.4450   57.2510 C.ar    0  <0>0        0.0145
      4  C8        -0.0760   31.1230   58.0050 C.ar    0  <0>0        0.1401
      5  C7         0.3830   30.5800   59.1910 C.ar    0  <0>0        0.0238
      6  C6        -0.0910   29.3540   59.6170 C.ar    0  <0>0        0.0017
      7  C5        -1.0250   28.6720   58.8610 C.ar    0  <0>0       -0.0002
      8  C4        -1.4880   29.2170   57.6770 C.ar    0  <0>0       -0.0013
      9  N1         0.4350   32.4350   57.5460 N.pl3   0  <0>0        0.0574
     10  O1        -0.0720   33.4550   57.9490 O.2     0  <0>0       -0.1261
     11  O2         1.3600   32.4840   56.7690 O.2     0  <0>0       -0.1261
     12  N2        -0.5150   30.8380   54.9060 N.3     0  <0>0       -0.2948
     13  H9        -0.2860   31.7100   54.4550 H       0  <0>0        0.1235
     14  C9        -0.9740   29.8420   53.9270 C.3     0  <0>0        0.0735
     15  C10       -0.2120   28.5330   54.1390 C.3     0  <0>0        0.0435
     16  C11       -0.6140   27.5410   53.0770 C.ar    0  <0>0       -0.0186
     17  C16       -0.2200   26.2200   53.1800 C.ar    0  <0>0        0.0254
     18  C15       -0.5950   25.3090   52.2070 C.ar    0  <0>0        0.1398
     19  C14       -1.3540   25.7250   51.1260 C.ar    0  <0>0        0.0296
     20  F1        -0.2160   24.0160   52.3090 F       0  <0>0       -0.2042
     21  C13       -1.7420   27.0470   51.0220 C.ar    0  <0>0        0.0020
     22  C12       -1.3720   27.9550   51.9970 C.ar    0  <0>0       -0.0041
@<TRIPOS>BOND
     1    21    19   ar
     2    21    22   ar
     3    19    18   ar
     4    22    16   ar
     5    18    20    1
     6    18    17   ar
     7    16    17   ar
     8    16    15    1
     9    14    15    1
    10    14    12    1
    11    13    12    1
    12    12     2    1
    13     1     2    1
    14     2     3    1
    15    11     9    2
    16     3     8   ar
    17     3     4   ar
    18     9    10    2
    19     9     4    1
    20     8     7   ar
    21     4     5   ar
    22     7     6   ar
    23     5     6   ar
