@<TRIPOS>MOLECULE
ZINC13085011_replica-1.pdb
 24 25 0 0 0
SMALL
GASTEIGER

@<TRIPOS>ATOM
      1  C8         2.1800   32.3190   56.2770 C.3     0  <0>0        0.2894
      2  O2         2.0500   33.7410   56.2510 O.3     0  <0>0       -0.4648
      3  C3         3.1830   34.4610   56.0500 C.ar    0  <0>0        0.1497
      4  C2         3.9410   34.2540   54.9040 C.ar    0  <0>0        0.0380
      5  C1         5.0950   34.9770   54.6990 C.ar    0  <0>0        0.0097
      6  C6         5.4980   35.9290   55.6380 C.ar    0  <0>0        0.0808
      7  C5         4.7330   36.1350   56.7910 C.ar    0  <0>0        0.0210
      8  C4         3.5830   35.4030   56.9920 C.ar    0  <0>0        0.0917
      9 Cl          2.6320   35.6580   58.4210 Cl      0  <0>0       -0.0791
     10  C7         6.7300   36.7100   55.4200 C.2     0  <0>0        0.3878
     11  O1         7.6080   36.2720   54.7040 O.co2   0  <0>0       -0.2406
     12  O4         6.8810   37.9080   56.0180 O.co2   0  <0>0       -0.2406
     13  C9         0.9050   31.6890   55.7800 C.2     0  <0>0        0.2670
     14  O3        -0.1640   32.2060   56.0280 O.2     0  <0>0       -0.2711
     15  N1         0.9510   30.5500   55.0610 N.am    0  <0>0       -0.3010
     16  H6         1.8060   30.1360   54.8630 H       0  <0>0        0.1496
     17  C10       -0.2890   29.9360   54.5790 C.3     0  <0>0        0.0938
     18  C11       -0.2370   28.4260   54.8180 C.3     0  <0>0        0.0429
     19  C12       -0.5800   27.7040   53.5400 C.2     0  <0>0       -0.0468
     20  C17       -1.4050   28.4320   52.5200 C.3     0  <0>0        0.0218
     21  C16       -1.2910   27.7390   51.1590 C.3     0  <0>0        0.0047
     22  C15       -1.5520   26.2400   51.3590 C.3     0  <0>0        0.0050
     23  C14       -0.4000   25.6520   52.1760 C.3     0  <0>0        0.0254
     24  C13       -0.1480   26.4930   53.3930 C.2     0  <0>0       -0.0346
@<TRIPOS>BOND
     1    21    22    1
     2    21    20    1
     3    22    23    1
     4    23    24    1
     5    20    19    1
     6    24    19    2
     7    19    18    1
     8    17    18    1
     9    17    15    1
    10     5     4   ar
    11     5     6   ar
    12    11    10   ar
    13    16    15    1
    14     4     3   ar
    15    15    13   am
    16    10     6    1
    17    10    12   ar
    18     6     7   ar
    19    13    14    2
    20    13     1    1
    21     3     2    1
    22     3     8   ar
    23     2     1    1
    24     7     8   ar
    25     8     9    1
