@<TRIPOS>MOLECULE
ZINC06504783_replica-1.pdb
 27 30 0 0 0
SMALL
GASTEIGER

@<TRIPOS>ATOM
      1  C10        1.3860   31.4900   56.2610 C.2     0  <0>0        0.1371
      2  S1         1.3580   31.0230   57.9070 S.2     0  <0>0       -0.0185
      3  N2         1.8800   32.6940   55.9090 N.am    0  <0>0       -0.3190
      4  H11        1.9660   32.9280   54.9720 H       0  <0>0        0.1483
      5  N1         0.9110   30.6550   55.3150 N.am    0  <0>0       -0.2643
      6  C9        -0.3800   30.7320   54.9350 C.2     0  <0>0        0.2719
      7  O2        -1.1140   31.5530   55.4420 O.2     0  <0>0       -0.2707
      8  H10        1.4980   29.9980   54.9100 H       0  <0>0        0.1566
      9  C8        -0.9110   29.7980   53.8780 C.3     0  <0>0        0.2897
     10  O1        -0.3080   28.5130   54.0310 O.3     0  <0>0       -0.4659
     11  C7        -0.6120   27.5730   53.0980 C.ar    0  <0>0        0.1352
     12  C2        -0.1710   26.2680   53.2560 C.ar    0  <0>0        0.0121
     13  C1         0.6470   25.8890   54.4650 C.3     0  <0>0        0.0342
     14  C3        -0.4820   25.3130   52.3060 C.ar    0  <0>0       -0.0013
     15  C4        -1.2330   25.6600   51.1990 C.ar    0  <0>0       -0.0001
     16  C5        -1.6730   26.9600   51.0380 C.ar    0  <0>0        0.0031
     17  C6        -1.3700   27.9160   51.9870 C.ar    0  <0>0        0.0366
     18  C11        2.2900   33.6470   56.9440 C.3     0  <0>0        0.0558
     19  C16        1.1910   33.7540   58.0030 C.3     0  <0>0        0.0180
     20  C15        1.6180   34.7490   59.0840 C.3     0  <0>0        0.0016
     21  C14        2.9140   34.2650   59.7390 C.3     0  <0>0        0.0001
     22  C17        1.8490   36.1220   58.4490 C.3     0  <0>0        0.0001
     23  C13        4.0120   34.1600   58.6800 C.3     0  <0>0        0.0016
     24  C12        3.5840   33.1640   57.5990 C.3     0  <0>0        0.0180
     25  C19        4.2440   35.5330   58.0450 C.3     0  <0>0        0.0001
     26  C18        2.9480   36.0160   57.3900 C.3     0  <0>0        0.0016
     27  C20        2.5210   35.0200   56.3090 C.3     0  <0>0        0.0180
@<TRIPOS>BOND
     1    16    15   ar
     2    16    17   ar
     3    15    14   ar
     4    17    11   ar
     5    14    12   ar
     6    11    12   ar
     7    11    10    1
     8    12    13    1
     9     9    10    1
    10     9     6    1
    11     8     5    1
    12     6     5   am
    13     6     7    2
    14     4     3    1
    15     5     1    1
    16     3     1    1
    17     3    18    1
    18     1     2    2
    19    27    18    1
    20    27    26    1
    21    18    24    1
    22    18    19    1
    23    26    25    1
    24    26    22    1
    25    24    23    1
    26    19    20    1
    27    25    23    1
    28    22    20    1
    29    23    21    1
    30    20    21    1
