@<TRIPOS>MOLECULE
ZINC04849084_replica-1.pdb
 28 30 0 0 0
SMALL
GASTEIGER

@<TRIPOS>ATOM
      1  C1        -1.8830   27.5540   50.7470 C.3     0  <0>0        0.0308
      2  C2        -1.2140   27.3690   52.0850 C.2     0  <0>0       -0.0240
      3  C3        -0.4900   26.2050   52.3320 C.2     0  <0>0       -0.0083
      4  C4         0.1250   26.0080   53.5310 C.2     0  <0>0       -0.0154
      5  C5         0.0280   26.9900   54.5320 C.3     0  <0>0        0.0966
      6  C6         0.6520   26.8180   55.7800 C.2     0  <0>0       -0.0016
      7  C7         0.5220   27.8310   56.7210 C.2     0  <0>0        0.1003
      8  C8        -0.2360   28.9830   56.4010 C.2     0  <0>0        0.1663
      9  N1        -0.8090   29.1190   55.2240 N.2     0  <0>0       -0.3990
     10  C9        -0.7090   28.1750   54.2810 C.2     0  <0>0        0.1131
     11  C10       -1.3280   28.3400   53.0310 C.2     0  <0>0        0.0003
     12  C11       -2.1180   29.5900   52.7390 C.3     0  <0>0        0.0330
     13  C22        1.1420   27.7070   58.0060 C.1     0  <0>0        0.1032
     14  N3         1.6340   27.6090   59.0260 N.1     0  <0>0       -0.1907
     15  S1        -0.4060   30.2650   57.5980 S.3     0  <0>0       -0.0719
     16  C12       -0.2990   31.7170   56.5220 C.3     0  <0>0        0.1497
     17  C13        1.0430   32.3780   56.7030 C.2     0  <0>0        0.2375
     18  O1         2.0000   31.7210   57.0530 O.2     0  <0>0       -0.2738
     19  N2         1.1790   33.6990   56.4750 N.am    0  <0>0       -0.2832
     20  H12        0.4020   34.2360   56.2590 H       0  <0>0        0.1549
     21  C14        2.4420   34.2960   56.5560 C.ar    0  <0>0        0.0497
     22  C19        3.2980   34.2650   55.4630 C.ar    0  <0>0        0.0104
     23  C18        4.5440   34.8550   55.5460 C.ar    0  <0>0       -0.0209
     24  C17        4.9390   35.4770   56.7160 C.ar    0  <0>0       -0.0084
     25  C20        5.4730   34.8220   54.3600 C.3     0  <0>0        0.0311
     26  C16        4.0890   35.5090   57.8060 C.ar    0  <0>0       -0.0209
     27  C15        2.8400   34.9270   57.7280 C.ar    0  <0>0        0.0104
     28  C21        4.5250   36.1880   59.0790 C.3     0  <0>0        0.0311
@<TRIPOS>BOND
     1     1     2    1
     2     2     3    1
     3     2    11    2
     4     3     4    2
     5    12    11    1
     6    11    10    1
     7     4     5    1
     8    10     5    1
     9    10     9    2
    10    25    23    1
    11     5     6    1
    12     9     8    2
    13    22    23   ar
    14    22    21   ar
    15    23    24   ar
    16     6     7    2
    17    20    19    1
    18     8     7    1
    19     8    15    1
    20    19    21    1
    21    19    17   am
    22    16    17    1
    23    16    15    1
    24    21    27   ar
    25    17    18    2
    26    24    26   ar
    27     7    13    1
    28    27    26   ar
    29    26    28    1
    30    13    14    3
