@<TRIPOS>MOLECULE
ZINC21013354_replica-1.pdb
 22 23 0 0 0
SMALL
GASTEIGER

@<TRIPOS>ATOM
      1  C4        10.1490   35.4600   60.0080 C.3     0  <0>0        0.0919
      2  C3         9.7360   36.8570   60.4750 C.3     0  <0>0        0.0241
      3  C2         8.6570   36.7350   61.5540 C.3     0  <0>0        0.0020
      4  C1         7.2880   37.0420   60.9430 C.3     0  <0>0        0.0001
      5  C5         9.3440   35.0790   58.7920 C.ar    0  <0>0       -0.0029
      6  C10        8.9920   36.0440   57.8670 C.ar    0  <0>0        0.0214
      7  C9         8.2530   35.6950   56.7510 C.ar    0  <0>0        0.1426
      8  C8         7.8680   34.3810   56.5610 C.ar    0  <0>0        0.0241
      9  C7         8.2160   33.4180   57.4890 C.ar    0  <0>0        0.0014
     10  C6         8.9590   33.7650   58.6010 C.ar    0  <0>0       -0.0026
     11  N1         7.8750   36.7290   55.7610 N.pl3   0  <0>0        0.0577
     12  O1         7.8580   37.9020   56.0820 O.2     0  <0>0       -0.1261
     13  O2         7.5800   36.4030   54.6250 O.2     0  <0>0       -0.1261
     14  N2         9.8990   34.4940   61.0810 N.pl3   0  <0>0       -0.3306
     15  H13        8.8670   34.2350   61.3580 H       0  <0>0        0.1471
     16  C11       10.9730   33.9010   61.7500 C.ar    0  <0>0        0.0449
     17  C16       10.8480   32.6170   62.2670 C.ar    0  <0>0        0.0152
     18  C15       11.9110   32.0340   62.9270 C.ar    0  <0>0        0.0127
     19  C14       13.1000   32.7250   63.0760 C.ar    0  <0>0        0.0578
     20  C13       13.2270   34.0050   62.5630 C.ar    0  <0>0        0.0127
     21 Cl         14.4340   31.9890   63.9070 Cl      0  <0>0       -0.0822
     22  C12       12.1700   34.5910   61.8960 C.ar    0  <0>0        0.0152
@<TRIPOS>BOND
     1    13    11    2
     2    11    12    2
     3    11     7    1
     4     8     7   ar
     5     8     9   ar
     6     7     6   ar
     7     9    10   ar
     8     6     5   ar
     9    10     5   ar
    10     5     1    1
    11     1     2    1
    12     1    14    1
    13     2     3    1
    14     4     3    1
    15    14    15    1
    16    14    16    1
    17    16    22   ar
    18    16    17   ar
    19    22    20   ar
    20    17    18   ar
    21    20    19   ar
    22    18    19   ar
    23    19    21    1
