@<TRIPOS>MOLECULE
ZINC36953282_replica-1.pdb
 20 21 0 0 0
SMALL
GASTEIGER

@<TRIPOS>ATOM
      1  C5        11.8690   34.7760   62.2170 C.ar    0  <0>0       -0.0224
      2  C6        11.2710   34.3120   61.0590 C.ar    0  <0>0       -0.0030
      3  C7        10.4090   35.1250   60.3500 C.ar    0  <0>0        0.0140
      4  C8        10.1430   36.4120   60.8010 C.ar    0  <0>0        0.0448
      5  C9        10.7460   36.8750   61.9640 C.ar    0  <0>0        0.0140
      6  C10       11.6020   36.0550   62.6710 C.ar    0  <0>0       -0.0030
      7  N1         9.2730   37.2370   60.0860 N.pl3   0  <0>0       -0.3302
      8  H15        9.5030   38.1660   59.9310 H       0  <0>0        0.1471
      9  C11        8.0120   36.6990   59.5700 C.3     0  <0>0        0.0979
     10  C12        6.8620   37.1240   60.4880 C.3     0  <0>0        0.0246
     11  C13        5.8770   35.9630   60.6410 C.3     0  <0>0        0.0021
     12  C14        7.7680   37.2320   58.1820 C.ar    0  <0>0        0.0250
     13  S1         6.8310   36.5040   56.8480 S.2     0  <0>0       -0.0892
     14  C17        7.0790   37.7910   55.6350 C.ar    0  <0>0        0.0352
     15  C16        7.8520   38.6720   56.3160 C.ar    0  <0>0        0.0072
     16  C15        8.2050   38.3860   57.6210 C.ar    0  <0>0        0.0043
     17  C3        12.8090   33.8850   62.9870 C.3     0  <0>0        0.0223
     18  C4        14.1850   33.8970   62.3190 C.3     0  <0>0        0.0047
     19  C2        12.2610   32.4560   63.0010 C.3     0  <0>0        0.0044
     20  C1        13.3710   31.4880   63.4140 C.3     0  <0>0        0.0003
@<TRIPOS>BOND
     1    14    15   ar
     2    14    13   ar
     3    15    16   ar
     4    13    12   ar
     5    16    12   ar
     6    12     9    1
     7     9     7    1
     8     9    10    1
     9     8     7    1
    10     7     4    1
    11     3     4   ar
    12     3     2   ar
    13    10    11    1
    14     4     5   ar
    15     2     1   ar
    16     5     6   ar
    17     1     6   ar
    18     1    17    1
    19    18    17    1
    20    17    19    1
    21    19    20    1
