@<TRIPOS>MOLECULE
ZINC20589624_replica-1.pdb
 18 19 0 0 0
SMALL
GASTEIGER

@<TRIPOS>ATOM
      1  C4         6.1740   36.4180   56.3940 C.2     0  <0>0        0.3447
      2  N1         4.9360   36.3180   55.9980 N.2     0  <0>0        0.0880
      3  N2         4.2610   35.6110   56.8320 N.2     0  <0>0        0.0474
      4  C5         5.0340   35.2240   57.8200 C.1     0  <0>0        0.1838
      5  N3         6.2820   35.7280   57.5730 N.am    0  <0>0       -0.0964
      6  S1         4.5560   34.2440   59.2040 S.2     0  <0>0        0.0565
      7  C6         7.4310   35.5710   58.3610 C.ar    0  <0>0        0.1734
      8  C11        7.6300   36.3800   59.4720 C.ar    0  <0>0        0.0925
      9  C10        8.7610   36.2190   60.2490 C.ar    0  <0>0       -0.0078
     10 Cl          6.4540   37.5880   59.8880 Cl      0  <0>0       -0.0789
     11  C9         9.7010   35.2610   59.9150 C.ar    0  <0>0       -0.0023
     12  C12        8.9750   37.0930   61.4580 C.3     0  <0>0        0.0320
     13  C8         9.5100   34.4580   58.8070 C.ar    0  <0>0        0.0146
     14  C7         8.3770   34.6100   58.0280 C.ar    0  <0>0        0.0965
     15 Cl          8.1380   33.6000   56.6370 Cl      0  <0>0       -0.0786
     16  C3         7.2820   37.1550   55.6870 C.3     0  <0>0        0.1213
     17  C2         7.3760   38.5810   56.2340 C.3     0  <0>0        0.0128
     18  C1         8.6720   38.7370   57.0310 C.3     0  <0>0        0.0006
@<TRIPOS>BOND
     1    16    17    1
     2    16     1    1
     3     2     1    2
     4     2     3    1
     5    17    18    1
     6     1     5    1
     7    15    14    1
     8     3     4    2
     9     5     4    1
    10     5     7    1
    11     4     6    2
    12    14     7   ar
    13    14    13   ar
    14     7     8   ar
    15    13    11   ar
    16     8    10    1
    17     8     9   ar
    18    11     9   ar
    19     9    12    1
