@<TRIPOS>MOLECULE
ZINC37137322_replica-1.pdb
 20 21 0 0 0
SMALL
GASTEIGER

@<TRIPOS>ATOM
      1  C7        10.0710   35.3040   59.6140 C.ar    0  <0>0        0.0446
      2  C8         9.7010   36.5130   60.1910 C.ar    0  <0>0        0.0143
      3  C9        10.2000   36.8750   61.4280 C.ar    0  <0>0        0.0013
      4  C10       11.0700   36.0370   62.0980 C.ar    0  <0>0        0.0016
      5  C11       11.4460   34.8210   61.5260 C.ar    0  <0>0        0.0183
      6  C12       10.9390   34.4540   60.2810 C.ar    0  <0>0        0.0158
      7  N1         9.5630   34.9420   58.3640 N.pl3   0  <0>0       -0.3340
      8  H15       10.0860   34.3780   57.7720 H       0  <0>0        0.1468
      9  C2         8.2410   35.4140   57.9450 C.3     0  <0>0        0.0691
     10  C1         7.3500   34.2130   57.6210 C.3     0  <0>0        0.0212
     11  C3         8.3840   36.2940   56.7020 C.3     0  <0>0        0.0195
     12  C4         7.6420   37.6140   56.9230 C.3     0  <0>0        0.0016
     13  C5         8.6200   38.6670   57.4480 C.3     0  <0>0        0.0001
     14  C6         7.0430   38.0900   55.5970 C.3     0  <0>0        0.0001
     15  C13       12.3790   33.9230   62.2430 C.ar    0  <0>0        0.0755
     16  N3        12.0400   32.8210   62.9700 N.ar    0  <0>0       -0.2757
     17  N2        13.2220   32.2630   63.4740 N.ar    0  <0>0       -0.1711
     18  H2        11.1420   32.4830   63.1110 H       0  <0>0        0.1889
     19  C15       14.2300   32.9970   63.0780 C.ar    0  <0>0        0.1214
     20  C14       13.7380   34.0490   62.3040 C.ar    0  <0>0        0.0409
@<TRIPOS>BOND
     1    14    12    1
     2    11    12    1
     3    11     9    1
     4    12    13    1
     5    10     9    1
     6     8     7    1
     7     9     7    1
     8     7     1    1
     9     1     2   ar
    10     1     6   ar
    11     2     3   ar
    12     6     5   ar
    13     3     4   ar
    14     5     4   ar
    15     5    15    1
    16    15    20   ar
    17    15    16   ar
    18    20    19   ar
    19    16    18    1
    20    16    17   ar
    21    19    17   ar
