@<TRIPOS>MOLECULE
ZINC57684555_replica-1.pdb
 23 24 0 0 0
SMALL
GASTEIGER

@<TRIPOS>ATOM
      1  C14       -0.0510   28.2180   54.3790 C.3     0  <0>0        0.1137
      2  C15       -0.5350   29.5950   54.1920 C.1     0  <0>0        0.0765
      3  N1        -0.9080   30.6580   54.0470 N.1     0  <0>0       -0.1956
      4  C13       -0.6240   27.6480   55.6790 C.3     0  <0>0        0.0234
      5  C12        0.5190   27.1460   56.5630 C.3     0  <0>0        0.0488
      6  C11        0.5500   27.9510   57.8640 C.3     0  <0>0        0.2054
      7  O1        -0.4220   28.9960   57.7990 O.3     0  <0>0       -0.4755
      8  C8        -0.0450   30.2180   58.2600 C.ar    0  <0>0        0.1385
      9  C7        -0.2260   31.3450   57.4720 C.ar    0  <0>0        0.0366
     10  C6         0.1580   32.5850   57.9450 C.ar    0  <0>0       -0.0012
     11  C5         0.7200   32.7040   59.2020 C.ar    0  <0>0       -0.0226
     12  C10        0.9060   31.5820   59.9880 C.ar    0  <0>0       -0.0012
     13  C9         0.5200   30.3400   59.5220 C.ar    0  <0>0        0.0366
     14  C2         1.1360   34.0590   59.7150 C.3     0  <0>0        0.0189
     15  C1         0.9680   35.0980   58.6040 C.3     0  <0>0        0.0044
     16  C3         2.6010   34.0110   60.1520 C.3     0  <0>0        0.0044
     17  C4         0.2600   34.4420   60.9090 C.3     0  <0>0        0.0044
     18  C16       -0.4970   27.3670   53.2180 C.ar    0  <0>0       -0.0084
     19  C21       -1.3080   27.9060   52.2370 C.ar    0  <0>0       -0.0033
     20  C20       -1.7140   27.1270   51.1690 C.ar    0  <0>0       -0.0003
     21  C19       -1.3170   25.8060   51.0880 C.ar    0  <0>0       -0.0000
     22  C18       -0.5090   25.2650   52.0710 C.ar    0  <0>0       -0.0003
     23  C17       -0.1010   26.0460   53.1370 C.ar    0  <0>0       -0.0033
@<TRIPOS>BOND
     1    21    20   ar
     2    21    22   ar
     3    20    19   ar
     4    22    23   ar
     5    19    18   ar
     6    23    18   ar
     7    18     1    1
     8     3     2    3
     9     2     1    1
    10     1     4    1
    11     4     5    1
    12     5     6    1
    13     9    10   ar
    14     9     8   ar
    15     7     6    1
    16     7     8    1
    17    10    11   ar
    18     8    13   ar
    19    15    14    1
    20    11    14    1
    21    11    12   ar
    22    13    12   ar
    23    14    16    1
    24    14    17    1
