@<TRIPOS>MOLECULE
ZINC43373790_replica-1.pdb
 21 22 0 0 0
SMALL
GASTEIGER

@<TRIPOS>ATOM
      1  C9        -3.0940   30.7220   54.9200 C.3     0  <0>0        0.1236
      2  C8        -2.2390   30.4970   53.6720 C.3     0  <0>0        0.0982
      3  N1        -1.1120   29.6210   54.0030 N.pl3   0  <0>0       -0.3322
      4  H8        -0.4700   29.8910   54.6790 H       0  <0>0        0.1468
      5  C5        -0.9630   28.3980   53.3460 C.ar    0  <0>0        0.0446
      6  C4        -1.5330   28.2060   52.0930 C.ar    0  <0>0        0.0140
      7  C3        -1.3830   26.9950   51.4460 C.ar    0  <0>0       -0.0030
      8  C2        -0.6650   25.9750   52.0420 C.ar    0  <0>0       -0.0218
      9  C1        -0.5030   24.6560   51.3320 C.3     0  <0>0        0.0310
     10  C7        -0.1000   26.1600   53.2910 C.ar    0  <0>0       -0.0030
     11  C6        -0.2420   27.3700   53.9420 C.ar    0  <0>0        0.0140
     12  C10       -2.4870   29.9830   56.0850 C.2     0  <0>0        0.2951
     13  O1        -1.4470   30.3980   56.8200 O.2     0  <0>0       -0.3158
     14  N3        -1.2280   29.3940   57.7990 N.2     0  <0>0       -0.0117
     15  C11       -2.1190   28.4680   57.5860 C.1     0  <0>0        0.1035
     16  N2        -2.8790   28.8290   56.5470 N.2     0  <0>0       -0.3169
     17  C12       -2.2690   27.1970   58.3820 C.3     0  <0>0        0.1153
     18  C13       -0.9160   26.8100   58.9850 C.3     0  <0>0        0.0171
     19  C14       -0.5300   25.4080   58.5130 C.3     0  <0>0        0.0011
     20  C15       -1.7550   24.4940   58.5720 C.3     0  <0>0        0.0000
     21  C16       -0.0150   25.4780   57.0740 C.3     0  <0>0        0.0000
@<TRIPOS>BOND
     1     9     8    1
     2     7     8   ar
     3     7     6   ar
     4     8    10   ar
     5     6     5   ar
     6    10    11   ar
     7     5    11   ar
     8     5     3    1
     9     2     3    1
    10     2     1    1
    11     3     4    1
    12     1    12    1
    13    12    16    2
    14    12    13    1
    15    16    15    2
    16    13    14    1
    17    21    19    1
    18    15    14    2
    19    15    17    1
    20    17    18    1
    21    19    20    1
    22    19    18    1
