@<TRIPOS>MOLECULE
ZINC04109646_replica-1.pdb
 28 30 0 0 0
SMALL
GASTEIGER

@<TRIPOS>ATOM
      1  C12        8.4740   36.5000   58.5840 C.2     0  <0>0        0.2615
      2  O1         8.6660   37.5310   57.9680 O.2     0  <0>0       -0.2686
      3  N1         7.2810   35.8780   58.5030 N.am    0  <0>0       -0.2303
      4  H16        7.1280   35.0560   58.9940 H       0  <0>0        0.1731
      5  N2         6.2610   36.4210   57.7100 N.am    0  <0>0       -0.2336
      6  C13        5.8580   35.7790   56.5960 C.2     0  <0>0        0.2378
      7  O2         6.3810   34.7310   56.2780 O.2     0  <0>0       -0.2736
      8  H17        5.8430   37.2590   57.9660 H       0  <0>0        0.1728
      9  C14        4.7610   36.3630   55.7450 C.3     0  <0>0        0.0823
     10  C16        3.3220   35.9540   56.0690 C.3     0  <0>0        0.0315
     11  C15        4.0070   35.4120   54.8130 C.3     0  <0>0        0.0143
     12  C17        3.1120   34.9980   57.2140 C.ar    0  <0>0       -0.0220
     13  C22        3.1390   33.6340   56.9900 C.ar    0  <0>0       -0.0043
     14  C21        2.9460   32.7570   58.0420 C.ar    0  <0>0       -0.0003
     15  C20        2.7260   33.2440   59.3160 C.ar    0  <0>0       -0.0000
     16  C19        2.7000   34.6070   59.5410 C.ar    0  <0>0       -0.0003
     17  C18        2.8980   35.4840   58.4910 C.ar    0  <0>0       -0.0043
     18  C11        9.5380   35.9360   59.4170 C.2     0  <0>0        0.0592
     19  C10        9.2580   34.9490   60.2920 C.2     0  <0>0        0.0047
     20  C7        10.3290   34.3820   61.1290 C.ar    0  <0>0        0.0001
     21  C6        11.4110   35.1770   61.5180 C.ar    0  <0>0       -0.0003
     22  C5        12.4100   34.6400   62.3020 C.ar    0  <0>0       -0.0043
     23  C4        12.3440   33.3170   62.7020 C.ar    0  <0>0       -0.0225
     24  C9        11.2770   32.5240   62.3210 C.ar    0  <0>0       -0.0043
     25  C8        10.2670   33.0480   61.5420 C.ar    0  <0>0       -0.0003
     26  C2        13.4410   32.7370   63.5580 C.3     0  <0>0        0.0224
     27  C1        13.3520   31.2100   63.5340 C.3     0  <0>0        0.0047
     28  C3        14.8000   33.1770   63.0130 C.3     0  <0>0        0.0047
@<TRIPOS>BOND
     1    11     9    1
     2    11    10    1
     3     9    10    1
     4     9     6    1
     5    10    12    1
     6     7     6    2
     7     6     5   am
     8    13    12   ar
     9    13    14   ar
    10    12    17   ar
    11     5     8    1
    12     5     3    1
    13     2     1    2
    14    14    15   ar
    15    17    16   ar
    16     3     1   am
    17     3     4    1
    18     1    18    1
    19    15    16   ar
    20    18    19    2
    21    19    20    1
    22    20    21   ar
    23    20    25   ar
    24    21    22   ar
    25    25    24   ar
    26    22    23   ar
    27    24    23   ar
    28    23    26    1
    29    28    26    1
    30    27    26    1
