@<TRIPOS>MOLECULE
ZINC09308112_replica-1.pdb
 29 32 0 0 0
SMALL
GASTEIGER

@<TRIPOS>ATOM
      1  C1         2.6270   36.1400   57.0840 C.ar    0  <0>0       -0.0027
      2  C2         1.8790   35.6890   58.1510 C.ar    0  <0>0        0.0100
      3  C3         1.6120   34.3240   58.2850 C.ar    0  <0>0        0.0684
      4  C4         2.0990   33.4270   57.3330 C.ar    0  <0>0        0.0100
      5  C5         2.8420   33.8930   56.2680 C.ar    0  <0>0       -0.0027
      6  C6         3.1030   35.2460   56.1410 C.ar    0  <0>0       -0.0109
      7  C22        0.8390   33.8490   59.3940 C.1     0  <0>0        0.1004
      8  N4         0.2270   33.4710   60.2720 N.1     0  <0>0       -0.1908
      9  C7         3.9150   35.7470   54.9750 C.3     0  <0>0        0.0914
     10  S1         5.2180   34.5510   54.5890 S.3     0  <0>0       -0.0705
     11  C8         6.5730   35.2880   55.4390 C.ar    0  <0>0        0.1974
     12  N3         6.9040   35.1040   56.7540 N.ar    0  <0>0       -0.2690
     13  C9         8.0220   35.8790   56.9660 C.ar    0  <0>0        0.1706
     14  N2         8.3100   36.4620   55.8250 N.ar    0  <0>0       -0.1279
     15  N1         7.4580   36.1150   54.9280 N.ar    0  <0>0       -0.1218
     16  C10        6.2410   34.2970   57.6900 C.ar    0  <0>0        0.0673
     17  C15        6.2370   32.9170   57.5380 C.ar    0  <0>0        0.0185
     18  C14        5.5850   32.1240   58.4620 C.ar    0  <0>0        0.0129
     19  C13        4.9350   32.7040   59.5380 C.ar    0  <0>0        0.0578
     20  C12        4.9380   34.0790   59.6900 C.ar    0  <0>0        0.0129
     21 Cl          4.1160   31.7050   60.6970 Cl      0  <0>0       -0.0822
     22  C11        5.5940   34.8770   58.7720 C.ar    0  <0>0        0.0185
     23  C16        8.7640   36.0240   58.2370 C.ar    0  <0>0        0.0363
     24  C21        9.6070   35.0010   58.6760 C.ar    0  <0>0        0.0039
     25  C20       10.2970   35.1430   59.8630 C.ar    0  <0>0        0.0115
     26  C19       10.1540   36.2950   60.6170 C.ar    0  <0>0        0.0577
     27  C18        9.3230   37.3140   60.1840 C.ar    0  <0>0        0.0115
     28 Cl         11.0240   36.4640   62.1090 Cl      0  <0>0       -0.0822
     29  C17        8.6230   37.1820   59.0020 C.ar    0  <0>0        0.0039
@<TRIPOS>BOND
     1    10     9    1
     2    10    11    1
     3    15    11   ar
     4    15    14   ar
     5     9     6    1
     6    11    12   ar
     7    14    13   ar
     8     6     5   ar
     9     6     1   ar
    10     5     4   ar
    11    12    13   ar
    12    12    16    1
    13    13    23    1
    14     1     2   ar
    15     4     3   ar
    16    17    16   ar
    17    17    18   ar
    18    16    22   ar
    19     2     3   ar
    20    23    24   ar
    21    23    29   ar
    22     3     7    1
    23    18    19   ar
    24    24    25   ar
    25    22    20   ar
    26    29    27   ar
    27     7     8    3
    28    19    20   ar
    29    19    21    1
    30    25    26   ar
    31    27    26   ar
    32    26    28    1
