@<TRIPOS>MOLECULE
ZINC66165785_replica-1.pdb
 26 27 0 0 0
SMALL
GASTEIGER

@<TRIPOS>ATOM
      1  C10        6.4360   37.2360   59.2310 C.3     0  <0>0        0.1312
      2  N1         6.1540   36.3770   58.0780 N.pl3   0  <0>0       -0.3298
      3  H13        6.8820   36.0380   57.5370 H       0  <0>0        0.1469
      4  C7         4.8320   36.0450   57.7600 C.ar    0  <0>0        0.0449
      5  C6         4.4970   35.6960   56.4590 C.ar    0  <0>0        0.0174
      6  C5         3.1930   35.3680   56.1460 C.ar    0  <0>0        0.0382
      7  C4         2.2160   35.3880   57.1320 C.ar    0  <0>0        0.1386
      8  C9         2.5480   35.7430   58.4310 C.ar    0  <0>0        0.0382
      9  C8         3.8540   36.0650   58.7460 C.ar    0  <0>0        0.0174
     10  O1         0.9310   35.0650   56.8220 O.3     0  <0>0       -0.4755
     11  C3         0.2040   34.2990   57.7840 C.3     0  <0>0        0.2054
     12  C2         0.2390   32.8210   57.3900 C.3     0  <0>0        0.0473
     13  C1         0.6420   31.9800   58.6030 C.3     0  <0>0        0.0040
     14  C11        7.8930   37.6990   59.1780 C.3     0  <0>0        0.1854
     15  C12        8.0240   38.8620   58.1920 C.3     0  <0>0        0.0491
     16  O2         8.7210   36.6160   58.7490 O.3     0  <0>0       -0.4774
     17  C13        9.5760   36.0920   59.6670 C.ar    0  <0>0        0.1384
     18  C18        9.9230   36.8240   60.7930 C.ar    0  <0>0        0.0366
     19  C17       10.7870   36.2860   61.7260 C.ar    0  <0>0       -0.0012
     20  C16       11.3160   35.0230   61.5340 C.ar    0  <0>0       -0.0226
     21  C15       10.9750   34.2930   60.4100 C.ar    0  <0>0       -0.0012
     22  C14       10.1070   34.8240   59.4770 C.ar    0  <0>0        0.0366
     23  C19       12.2630   34.4410   62.5510 C.3     0  <0>0        0.0189
     24  C20       11.7650   33.0590   62.9800 C.3     0  <0>0        0.0044
     25  C21       13.6570   34.3110   61.9320 C.3     0  <0>0        0.0044
     26  C22       12.3300   35.3600   63.7720 C.3     0  <0>0        0.0044
@<TRIPOS>BOND
     1     6     5   ar
     2     6     7   ar
     3     5     4   ar
     4    10     7    1
     5    10    11    1
     6     7     8   ar
     7    12    11    1
     8    12    13    1
     9     3     2    1
    10     4     2    1
    11     4     9   ar
    12     2     1    1
    13    15    14    1
    14     8     9   ar
    15    16    14    1
    16    16    17    1
    17    14     1    1
    18    22    17   ar
    19    22    21   ar
    20    17    18   ar
    21    21    20   ar
    22    18    19   ar
    23    20    19   ar
    24    20    23    1
    25    25    23    1
    26    23    24    1
    27    23    26    1
