@<TRIPOS>MOLECULE
ZINC20420292_replica-1.pdb
 21 21 0 0 0
SMALL
GASTEIGER

@<TRIPOS>ATOM
      1  C7         8.5590   37.2390   57.2400 C.3     0  <0>0        0.1467
      2  C8         8.4510   38.7580   57.0970 C.3     0  <0>0        0.0311
      3  C6         7.6620   36.5730   56.2280 C.2     0  <0>0        0.2402
      4  N1         6.5020   36.0120   56.6230 N.am    0  <0>0       -0.3046
      5  H13        6.2100   36.0400   57.6840 H       0  <0>0        0.1494
      6  O1         7.9840   36.5420   55.0590 O.2     0  <0>0       -0.2733
      7  C4         5.6300   35.3640   55.6400 C.3     0  <0>0        0.0717
      8  C5         4.2850   36.0940   55.5920 C.3     0  <0>0        0.0213
      9  C3         5.4030   33.9050   56.0420 C.3     0  <0>0        0.0196
     10  C2         6.6130   33.0670   55.6220 C.3     0  <0>0        0.0017
     11  C1         6.8070   31.9180   56.6140 C.3     0  <0>0        0.0001
     12  N2         8.1490   36.8450   58.5900 N.pl3   0  <0>0       -0.3252
     13  H17        7.0950   36.9340   58.8920 H       0  <0>0        0.1473
     14  C9         9.0970   36.3580   59.4950 C.ar    0  <0>0        0.0728
     15  C14        9.6650   35.1030   59.3010 C.ar    0  <0>0        0.1536
     16  C13       10.6030   34.6250   60.1980 C.ar    0  <0>0        0.0376
     17  F1         9.3020   34.3530   58.2380 F       0  <0>0       -0.2029
     18  C12       10.9740   35.3930   61.2860 C.ar    0  <0>0        0.0369
     19  C11       10.4100   36.6410   61.4820 C.ar    0  <0>0        0.0081
     20 Br         12.2560   34.7350   62.5120 Br      0  <0>0       -0.0489
     21  C10        9.4730   37.1250   60.5900 C.ar    0  <0>0        0.0171
@<TRIPOS>BOND
     1     6     3    2
     2     8     7    1
     3    10     9    1
     4    10    11    1
     5     7     9    1
     6     7     4    1
     7     3     4   am
     8     3     1    1
     9     4     5    1
    10     2     1    1
    11     1    12    1
    12    17    15    1
    13    12    13    1
    14    12    14    1
    15    15    14   ar
    16    15    16   ar
    17    14    21   ar
    18    16    18   ar
    19    21    19   ar
    20    18    19   ar
    21    18    20    1
