@<TRIPOS>MOLECULE
ZINC57244173_replica-1.pdb
 26 28 0 0 0
SMALL
GASTEIGER

@<TRIPOS>ATOM
      1  N1         0.5810   32.1680   55.8910 N.am    0  <0>0       -0.2863
      2  C8         0.5160   30.8230   55.9580 C.2     0  <0>0        0.3015
      3  O1         0.9940   30.2390   56.9110 O.2     0  <0>0       -0.2528
      4  N2        -0.0800   30.1270   54.9700 N.am    0  <0>0       -0.2805
      5  H11        0.1990   32.6340   55.1300 H       0  <0>0        0.1512
      6  H12       -0.4610   30.5930   54.2090 H       0  <0>0        0.1516
      7  C9        -0.1510   28.6650   55.0440 C.3     0  <0>0        0.1534
      8  C10       -0.6080   28.1180   53.7170 C.ar    0  <0>0        0.0028
      9  C15       -0.1960   26.8620   53.3080 C.ar    0  <0>0       -0.0023
     10  C14       -0.6190   26.3570   52.0930 C.ar    0  <0>0       -0.0003
     11  C13       -1.4470   27.1110   51.2820 C.ar    0  <0>0       -0.0000
     12  C12       -1.8550   28.3680   51.6880 C.ar    0  <0>0       -0.0003
     13  C11       -1.4350   28.8710   52.9050 C.ar    0  <0>0       -0.0023
     14  C16       -1.1280   28.2640   56.1170 C.ar    0  <0>0        0.1450
     15  O2        -0.8930   27.3860   57.1050 O.2     0  <0>0       -0.4527
     16  C19       -1.9870   27.2770   57.8780 C.ar    0  <0>0        0.1792
     17  C18       -2.9410   28.0840   57.3810 C.ar    0  <0>0        0.0435
     18  C17       -2.3870   28.7210   56.2460 C.ar    0  <0>0        0.0382
     19  C3         1.2290   32.9260   56.9640 C.3     0  <0>0        0.1015
     20  C2         0.3080   34.0620   57.4120 C.3     0  <0>0        0.0247
     21  C1         0.5490   34.3610   58.8940 C.3     0  <0>0        0.0021
     22  C4         2.5280   33.4990   56.4620 C.ar    0  <0>0        0.0251
     23  S1         4.1700   32.8000   56.5410 S.2     0  <0>0       -0.0892
     24  C7         5.0470   34.1260   55.7290 C.ar    0  <0>0        0.0352
     25  C6         4.0470   35.0010   55.4630 C.ar    0  <0>0        0.0072
     26  C5         2.7570   34.6800   55.8380 C.ar    0  <0>0        0.0043
@<TRIPOS>BOND
     1    11    12   ar
     2    11    10   ar
     3    12    13   ar
     4    10     9   ar
     5    13     8   ar
     6     9     8   ar
     7     8     7    1
     8     6     4    1
     9     4     7    1
    10     4     2   am
    11     7    14    1
    12     5     1    1
    13    25    24   ar
    14    25    26   ar
    15    24    23   ar
    16    26    22   ar
    17     1     2   am
    18     1    19    1
    19     2     3    2
    20    14    18   ar
    21    14    15   ar
    22    18    17   ar
    23    22    23   ar
    24    22    19    1
    25    19    20    1
    26    15    16   ar
    27    17    16   ar
    28    20    21    1
