@<TRIPOS>MOLECULE
ZINC38107848_replica-1.pdb
 22 25 0 0 0
SMALL
GASTEIGER

@<TRIPOS>ATOM
      1  N2        -1.4080   29.0250   57.1380 N.3     0  <0>0       -0.1836
      2  H9        -1.5370   29.9790   57.2580 H       0  <0>0        0.1484
      3  S2        -1.2590   28.0380   58.4600 S.O2    0  <0>0        0.0553
      4  O1        -0.1510   27.1860   58.2060 O.2     0  <0>0       -0.1563
      5  O2        -2.5580   27.5360   58.7400 O.2     0  <0>0       -0.1563
      6  C3        -0.8090   29.0590   59.8230 C.3     0  <0>0        0.2472
      7  C2         0.1190   30.0460   59.8970 C.2     0  <0>0        0.1228
      8  C1         0.9610   30.4260   58.7060 C.3     0  <0>0        0.0644
      9  N1         0.2550   30.6530   61.0610 N.2     0  <0>0       -0.3900
     10  C4        -0.4820   30.3210   62.0920 C.2     0  <0>0        0.2162
     11  S1        -1.4480   29.0810   61.4910 S.3     0  <0>0       -0.0395
     12 Cl         -0.4630   30.9950   63.6920 Cl      0  <0>0       -0.0415
     13  C5        -1.3440   28.4580   55.7890 C.3     0  <0>0        0.0751
     14  C9         0.0630   28.6660   55.1950 C.3     0  <0>0        0.0161
     15  C8        -0.1730   30.0320   54.4210 C.3     0  <0>0        0.0014
     16  C10        0.2970   27.8030   53.9640 C.3     0  <0>0        0.0013
     17  C7        -1.4320   29.5260   53.5950 C.3     0  <0>0        0.0014
     18  C6        -2.3380   29.1970   54.8540 C.3     0  <0>0        0.0174
     19  C11       -1.0610   28.1320   53.1900 C.3     0  <0>0        0.0001
     20  C12       -1.0620   27.2970   51.9850 C.3     0  <0>0        0.0000
     21  C13       -0.3730   25.9780   52.4760 C.3     0  <0>0        0.0000
     22  C14        0.1650   26.2850   53.9910 C.3     0  <0>0        0.0000
@<TRIPOS>BOND
     1    20    21    1
     2    20    19    1
     3    21    22    1
     4    19    17    1
     5    19    16    1
     6    17    15    1
     7    17    18    1
     8    16    22    1
     9    16    14    1
    10    15    14    1
    11    18    13    1
    12    14    13    1
    13    13     1    1
    14     1     2    1
    15     1     3    1
    16     4     3    2
    17     3     5    2
    18     3     6    1
    19     8     7    1
    20     6     7    1
    21     6    11    1
    22     7     9    2
    23     9    10    2
    24    11    10    1
    25    10    12    1
