@<TRIPOS>MOLECULE
ZINC49913597_replica-1.pdb
 23 24 0 0 0
SMALL
GASTEIGER

@<TRIPOS>ATOM
      1  C10       10.8280   34.5610   60.9950 C.3     0  <0>0        0.0549
      2  C9        12.0830   34.5600   61.8690 C.3     0  <0>0        0.1341
      3  C5        12.2090   33.2300   62.5670 C.ar    0  <0>0        0.0003
      4  C4        11.0850   32.4550   62.7840 C.ar    0  <0>0       -0.0026
      5  C3        11.2020   31.2340   63.4220 C.ar    0  <0>0       -0.0045
      6  C2        12.4410   30.7890   63.8430 C.ar    0  <0>0       -0.0222
      7  C1        12.5670   29.4590   64.5400 C.3     0  <0>0        0.0310
      8  C7        13.5630   31.5690   63.6310 C.ar    0  <0>0       -0.0087
      9  C6        13.4480   32.7870   62.9880 C.ar    0  <0>0       -0.0239
     10  C8        14.6720   33.6330   62.7520 C.3     0  <0>0        0.0308
     11  O1        11.9850   35.6020   62.8430 O.3     0  <0>0       -0.3800
     12  H22       12.4410   35.4080   63.6740 H       0  <0>0        0.2108
     13  C11       10.3940   36.0040   60.7250 C.3     0  <0>0        0.0899
     14  N1         9.0450   36.0110   60.1570 N.pl3   0  <0>0       -0.3328
     15  H15        8.3500   35.4610   60.5510 H       0  <0>0        0.1468
     16  C12        8.7580   36.8080   59.0460 C.ar    0  <0>0        0.0414
     17  C17        8.5830   36.2260   57.7980 C.ar    0  <0>0        0.0018
     18  C16        8.2920   37.0190   56.7030 C.ar    0  <0>0        0.0549
     19  C18        8.7020   34.7330   57.6380 C.3     0  <0>0        0.0332
     20  C15        8.1880   38.3910   56.8490 C.ar    0  <0>0        0.0112
     21 Cl          8.0660   36.2920   55.1430 Cl      0  <0>0       -0.0825
     22  C14        8.3680   38.9730   58.0900 C.ar    0  <0>0        0.0021
     23  C13        8.6520   38.1870   59.1890 C.ar    0  <0>0        0.0140
@<TRIPOS>BOND
     1    21    18    1
     2    18    20   ar
     3    18    17   ar
     4    20    22   ar
     5    19    17    1
     6    17    16   ar
     7    22    23   ar
     8    16    23   ar
     9    16    14    1
    10    14    15    1
    11    14    13    1
    12    13     1    1
    13     1     2    1
    14     2     3    1
    15     2    11    1
    16     3     4   ar
    17     3     9   ar
    18    10     9    1
    19     4     5   ar
    20    11    12    1
    21     9     8   ar
    22     5     6   ar
    23     8     6   ar
    24     6     7    1
