@<TRIPOS>MOLECULE
ZINC67321422_replica-1.pdb
 27 30 0 0 0
SMALL
GASTEIGER

@<TRIPOS>ATOM
      1  N2        -0.2270   30.3780   54.6790 N.2     0  <0>0       -0.2437
      2  C12       -1.0290   29.3480   54.6350 C.2     0  <0>0        0.1018
      3  C4         0.0970   30.9400   55.8840 C.ar    0  <0>0        0.0811
      4  C3         1.1120   31.8970   55.9580 C.ar    0  <0>0        0.0161
      5  C2         1.4360   32.4620   57.1730 C.ar    0  <0>0       -0.0070
      6  C1         2.5300   33.4950   57.2550 C.3     0  <0>0        0.0324
      7  C7         0.7580   32.0750   58.3240 C.ar    0  <0>0        0.0440
      8  C6        -0.2560   31.1270   58.2520 C.ar    0  <0>0        0.0157
      9  C5        -0.5860   30.5580   57.0420 C.ar    0  <0>0        0.0203
     10  N1         1.0930   32.6450   59.5540 N.pl3   0  <0>0       -0.3030
     11  C11        1.8670   31.8900   60.5520 C.3     0  <0>0        0.1231
     12  C10        1.1400   31.9710   61.8950 C.3     0  <0>0        0.1636
     13  O1         0.8690   33.3400   62.2040 O.3     0  <0>0       -0.3501
     14  C9         0.0040   33.9910   61.2700 C.3     0  <0>0        0.1636
     15  C8         0.6780   34.0160   59.8930 C.3     0  <0>0        0.1231
     16  C13       -1.3770   28.7460   53.3440 C.ar    0  <0>0        0.0528
     17  C22       -2.1480   29.4480   52.4140 C.ar    0  <0>0        0.1351
     18  C21       -2.4700   28.8700   51.1860 C.ar    0  <0>0        0.0367
     19  C20       -2.0620   27.6170   50.8550 C.ar    0  <0>0        0.0031
     20  C19       -1.2880   26.8520   51.7470 C.ar    0  <0>0        0.0002
     21  C14       -0.9300   27.3950   53.0040 C.ar    0  <0>0        0.0044
     22  C18       -0.8610   25.5560   51.4140 C.ar    0  <0>0        0.0000
     23  C15       -0.1600   26.6360   53.8930 C.ar    0  <0>0        0.0001
     24  C16        0.2360   25.3800   53.5380 C.ar    0  <0>0        0.0000
     25  C17       -0.1140   24.8430   52.3020 C.ar    0  <0>0        0.0000
     26  O2        -2.5810   30.7000   52.7040 O.3     0  <0>0       -0.5055
     27  H22       -1.9560   31.3980   52.4660 H       0  <0>0        0.2922
@<TRIPOS>BOND
     1    19    18   ar
     2    19    20   ar
     3    18    17   ar
     4    22    20   ar
     5    22    25   ar
     6    20    21   ar
     7    25    24   ar
     8    17    26    1
     9    17    16   ar
    10    27    26    1
    11    21    16   ar
    12    21    23   ar
    13    16     2    1
    14    24    23   ar
    15     2     1    2
    16     1     3    1
    17     3     4   ar
    18     3     9   ar
    19     4     5   ar
    20     9     8   ar
    21     5     6    1
    22     5     7   ar
    23     8     7   ar
    24     7    10    1
    25    10    15    1
    26    10    11    1
    27    15    14    1
    28    11    12    1
    29    14    13    1
    30    12    13    1
