@<TRIPOS>MOLECULE
ZINC61910884_replica-1.pdb
 19 20 0 0 0
SMALL
GASTEIGER

@<TRIPOS>ATOM
      1  C4         0.1180   29.2480   56.0720 C.3     0  <0>0        0.0886
      2  C3        -1.1350   28.8520   55.2880 C.3     0  <0>0        0.0256
      3  C2        -0.9730   29.2660   53.8240 C.3     0  <0>0        0.0240
      4  C1        -2.1230   30.1940   53.4250 C.3     0  <0>0        0.0047
      5  C9        -0.9930   28.0380   52.9500 C.ar    0  <0>0       -0.0224
      6  C14       -1.7150   28.0400   51.7720 C.ar    0  <0>0       -0.0043
      7  C13       -1.7300   26.9150   50.9680 C.ar    0  <0>0       -0.0003
      8  C12       -1.0300   25.7850   51.3480 C.ar    0  <0>0       -0.0000
      9  C11       -0.3120   25.7820   52.5290 C.ar    0  <0>0       -0.0003
     10  C10       -0.2940   26.9080   53.3310 C.ar    0  <0>0       -0.0043
     11  N1         0.7320   30.4230   55.4500 N.pl3   0  <0>0       -0.3167
     12  H9         1.0850   30.3650   54.5480 H       0  <0>0        0.1482
     13  C5         0.8100   31.6220   56.1510 C.ar    0  <0>0        0.1503
     14  N3         1.8910   32.3810   56.0530 N.ar    0  <0>0       -0.1323
     15  N2         2.0000   33.4960   56.6790 N.ar    0  <0>0       -0.1352
     16  C8         1.0500   33.9560   57.4690 C.ar    0  <0>0        0.1600
     17  C7        -0.1210   33.2300   57.6420 C.ar    0  <0>0        0.0355
     18 Cl          1.2620   35.4700   58.2920 Cl      0  <0>0       -0.0594
     19  C6        -0.2480   32.0270   56.9650 C.ar    0  <0>0        0.0384
@<TRIPOS>BOND
     1     7     8   ar
     2     7     6   ar
     3     8     9   ar
     4     6     5   ar
     5     9    10   ar
     6     5    10   ar
     7     5     3    1
     8     4     3    1
     9     3     2    1
    10    12    11    1
    11     2     1    1
    12    11     1    1
    13    11    13    1
    14    14    13   ar
    15    14    15   ar
    16    13    19   ar
    17    15    16   ar
    18    19    17   ar
    19    16    17   ar
    20    16    18    1
