@<TRIPOS>MOLECULE
ZINC20526310_replica-1.pdb
 20 21 0 0 0
SMALL
GASTEIGER

@<TRIPOS>ATOM
      1  C1         8.4950   38.6430   57.7040 C.3     0  <0>0        0.0261
      2  C2         8.4700   37.3000   58.4340 C.3     0  <0>0        0.0935
      3  C3         7.0930   36.6950   58.3250 C.ar    0  <0>0        0.0179
      4  C8         6.7860   35.8630   57.2650 C.ar    0  <0>0        0.1404
      5  C7         5.5230   35.3090   57.1650 C.ar    0  <0>0        0.0238
      6  C6         4.5690   35.5860   58.1250 C.ar    0  <0>0        0.0017
      7  C5         4.8760   36.4170   59.1860 C.ar    0  <0>0       -0.0002
      8  C4         6.1400   36.9690   59.2880 C.ar    0  <0>0       -0.0010
      9  N1         7.8080   35.5670   56.2360 N.pl3   0  <0>0        0.0574
     10  O1         8.5850   34.6430   56.3980 O.2     0  <0>0       -0.1261
     11  O2         7.8740   36.2480   55.2280 O.2     0  <0>0       -0.1261
     12  N2         8.8020   37.5050   59.8460 N.pl3   0  <0>0       -0.3306
     13  H9         8.3400   38.3320   60.4050 H       0  <0>0        0.1471
     14  C9         9.7060   36.6510   60.4820 C.ar    0  <0>0        0.0449
     15  C14       10.0310   35.4280   59.9060 C.ar    0  <0>0        0.0147
     16  C13       10.9250   34.5860   60.5370 C.ar    0  <0>0        0.0070
     17  C12       11.4970   34.9580   61.7400 C.ar    0  <0>0        0.0301
     18  C11       11.1760   36.1730   62.3160 C.ar    0  <0>0        0.0070
     19  I1        12.8520   33.6760   62.6930 I       0  <0>0       -0.0425
     20  C10       10.2870   37.0240   61.6870 C.ar    0  <0>0        0.0147
@<TRIPOS>BOND
     1    11     9    2
     2     9    10    2
     3     9     4    1
     4     5     4   ar
     5     5     6   ar
     6     4     3   ar
     7     1     2    1
     8     6     7   ar
     9     3     2    1
    10     3     8   ar
    11     2    12    1
    12     7     8   ar
    13    12    13    1
    14    12    14    1
    15    15    14   ar
    16    15    16   ar
    17    14    20   ar
    18    16    17   ar
    19    20    18   ar
    20    17    18   ar
    21    17    19    1
