@<TRIPOS>MOLECULE
ZINC07666000_replica-1.pdb
 24 26 0 0 0
SMALL
GASTEIGER

@<TRIPOS>ATOM
      1  N1         0.3070   30.7560   58.0650 N.pl3   0  <0>0       -0.2121
      2  C8        -0.4490   31.1820   57.0910 C.2     0  <0>0        0.1464
      3  N2        -0.3450   32.4840   56.6600 N.2     0  <0>0       -0.3804
      4  H8         0.3810   33.0440   56.9770 H       0  <0>0        0.1576
      5  H9        -0.9980   32.8420   56.0380 H       0  <0>0        0.1576
      6  S1        -1.6040   30.0910   56.3300 S.3     0  <0>0       -0.0762
      7  C9        -0.8090   29.8670   54.7190 C.3     0  <0>0        0.0911
      8  C10       -0.3770   28.4300   54.5680 C.ar    0  <0>0       -0.0109
      9  C15       -0.6960   27.7160   53.4010 C.ar    0  <0>0       -0.0031
     10  C14       -0.2780   26.3680   53.2750 C.ar    0  <0>0       -0.0003
     11  C16       -1.4100   28.3160   52.3500 C.ar    0  <0>0       -0.0003
     12  C13        0.4400   25.7680   54.3250 C.ar    0  <0>0       -0.0000
     13  C19       -0.5920   25.6550   52.1060 C.ar    0  <0>0       -0.0000
     14  C12        0.7260   26.4900   55.4430 C.ar    0  <0>0       -0.0003
     15  C11        0.3190   27.8160   55.5650 C.ar    0  <0>0       -0.0034
     16  C18       -1.2870   26.2680   51.1100 C.ar    0  <0>0       -0.0000
     17  C17       -1.6960   27.5950   51.2320 C.ar    0  <0>0       -0.0000
     18  C7         1.1680   31.6940   58.7890 C.3     0  <0>0        0.1406
     19  C4         0.6850   31.8240   60.2110 C.ar    0  <0>0       -0.0006
     20  C3         0.6560   33.0630   60.8210 C.ar    0  <0>0       -0.0026
     21  C2         0.2130   33.1810   62.1260 C.ar    0  <0>0       -0.0003
     22  C1        -0.2010   32.0600   62.8190 C.ar    0  <0>0       -0.0000
     23  C6        -0.1720   30.8200   62.2090 C.ar    0  <0>0       -0.0003
     24  C5         0.2660   30.7030   60.9030 C.ar    0  <0>0       -0.0026
@<TRIPOS>BOND
     1    16    17   ar
     2    16    13   ar
     3    17    11   ar
     4    13    10   ar
     5    11     9   ar
     6    10     9   ar
     7    10    12   ar
     8     9     8   ar
     9    12    14   ar
    10     8     7    1
    11     8    15   ar
    12     7     6    1
    13    14    15   ar
    14     5     3    1
    15     6     2    1
    16     3     4    1
    17     3     2    2
    18     2     1    1
    19     1    18    1
    20    18    19    1
    21    19    20   ar
    22    19    24   ar
    23    20    21   ar
    24    24    23   ar
    25    21    22   ar
    26    23    22   ar
