@<TRIPOS>MOLECULE
ZINC20526313_replica-1.pdb
 20 21 0 0 0
SMALL
GASTEIGER

@<TRIPOS>ATOM
      1  C1         0.6000   26.5920   55.4960 C.3     0  <0>0        0.0261
      2  C2        -0.1540   27.8440   55.0470 C.3     0  <0>0        0.0935
      3  C3        -0.6630   27.6490   53.6430 C.ar    0  <0>0        0.0179
      4  C8        -1.3960   28.6470   53.0300 C.ar    0  <0>0        0.1404
      5  C7        -1.8600   28.4700   51.7390 C.ar    0  <0>0        0.0238
      6  C6        -1.5980   27.2920   51.0660 C.ar    0  <0>0        0.0017
      7  C5        -0.8690   26.2920   51.6810 C.ar    0  <0>0       -0.0002
      8  C4        -0.4010   26.4700   52.9700 C.ar    0  <0>0       -0.0010
      9  N1        -1.6820   29.9070   53.7520 N.pl3   0  <0>0        0.0574
     10  O1        -0.7910   30.7180   53.9390 O.2     0  <0>0       -0.1261
     11  O2        -2.8070   30.1330   54.1600 O.2     0  <0>0       -0.1261
     12  N2        -1.2860   28.0820   55.9480 N.pl3   0  <0>0       -0.3306
     13  H9        -2.3130   27.8980   55.6000 H       0  <0>0        0.1471
     14  C9        -1.0600   28.5410   57.2470 C.ar    0  <0>0        0.0453
     15  C14       -0.2800   29.6690   57.4600 C.ar    0  <0>0        0.0201
     16  C13       -0.0580   30.1210   58.7480 C.ar    0  <0>0        0.0313
     17  C12       -0.6160   29.4510   59.8220 C.ar    0  <0>0        0.0059
     18  I1         1.1190   31.8230   59.0720 I       0  <0>0       -0.0425
     19  C11       -1.3930   28.3270   59.6130 C.ar    0  <0>0        0.0017
     20  C10       -1.6220   27.8730   58.3290 C.ar    0  <0>0        0.0143
@<TRIPOS>BOND
     1     6     7   ar
     2     6     5   ar
     3     7     8   ar
     4     5     4   ar
     5     8     3   ar
     6     4     3   ar
     7     4     9    1
     8     3     2    1
     9     9    10    2
    10     9    11    2
    11     2     1    1
    12     2    12    1
    13    13    12    1
    14    12    14    1
    15    14    15   ar
    16    14    20   ar
    17    15    16   ar
    18    20    19   ar
    19    16    18    1
    20    16    17   ar
    21    19    17   ar
