@<TRIPOS>MOLECULE
ZINC13730043_replica-1.pdb
 32 34 0 0 0
SMALL
GASTEIGER

@<TRIPOS>ATOM
      1  C12        7.5960   32.4940   59.2320 C.ar    0  <0>0       -0.0066
      2  C13        8.0580   31.1920   59.1970 C.ar    0  <0>0       -0.0032
      3  C14        7.5730   30.3070   58.2520 C.ar    0  <0>0        0.0029
      4  C15        6.6320   30.7260   57.3300 C.ar    0  <0>0        0.0400
      5  C16        6.1690   32.0310   57.3550 C.ar    0  <0>0        0.1718
      6  C17        6.6530   32.9200   58.3110 C.ar    0  <0>0        0.1666
      7  C11        8.1230   33.4530   60.2690 C.3     0  <0>0       -0.0505
      8  N1         9.4180   32.9590   60.7700 N.4     0  <0>0        0.3903
      9  H30        9.2540   32.2930   61.5350 H       0  <0>0       -0.0835
     10  H31        9.9190   32.4870   60.0080 H       0  <0>0       -0.0835
     11  C4        10.2360   34.0800   61.2700 C.3     0  <0>0       -0.0380
     12  C3        10.6750   34.9490   60.0900 C.3     0  <0>0       -0.0171
     13  C2         9.9630   36.3030   60.1620 C.3     0  <0>0       -0.0018
     14  C1         9.8790   36.7570   61.6200 C.3     0  <0>0       -0.0001
     15  C5        11.4530   33.5390   61.9750 C.ar    0  <0>0       -0.0420
     16  C10       12.6340   34.2580   61.9650 C.ar    0  <0>0       -0.0063
     17  C9        13.7510   33.7610   62.6110 C.ar    0  <0>0       -0.0004
     18  C8        13.6860   32.5460   63.2680 C.ar    0  <0>0       -0.0000
     19  C7        12.5050   31.8280   63.2790 C.ar    0  <0>0       -0.0004
     20  C6        11.3870   32.3260   62.6350 C.ar    0  <0>0       -0.0063
     21  O1         6.2010   34.2010   58.3410 O.3     0  <0>0       -0.4679
     22  C18        6.7270   35.0970   57.3600 C.3     0  <0>0        0.2343
     23  C19        6.9720   36.4450   57.9900 C.ar    0  <0>0        0.0486
     24  C24        7.7580   37.3810   57.3390 C.ar    0  <0>0        0.1396
     25  C23        7.9820   38.6180   57.9180 C.ar    0  <0>0        0.0294
     26  F1         8.3050   37.0870   56.1390 F       0  <0>0       -0.2044
     27  C22        7.4220   38.9170   59.1460 C.ar    0  <0>0        0.0023
     28  C21        6.6370   37.9820   59.7950 C.ar    0  <0>0       -0.0001
     29  C20        6.4080   36.7480   59.2140 C.ar    0  <0>0        0.0016
     30  O2         5.2430   32.4440   56.4480 O.3     0  <0>0       -0.4724
     31  C25        3.8780   32.4430   56.8670 C.3     0  <0>0        0.2057
     32  C26        3.0860   33.4490   56.0320 C.3     0  <0>0        0.0512
@<TRIPOS>BOND
     1    32    31    1
     2    26    24    1
     3    30    31    1
     4    30     5    1
     5     4     5   ar
     6     4     3   ar
     7    24    25   ar
     8    24    23   ar
     9     5     6   ar
    10    22    23    1
    11    22    21    1
    12    25    27   ar
    13    23    29   ar
    14     3     2   ar
    15     6    21    1
    16     6     1   ar
    17    27    28   ar
    18     2     1   ar
    19    29    28   ar
    20     1     7    1
    21    10     8    1
    22    12    13    1
    23    12    11    1
    24    13    14    1
    25     7     8    1
    26     8    11    1
    27     8     9    1
    28    11    15    1
    29    16    15   ar
    30    16    17   ar
    31    15    20   ar
    32    17    18   ar
    33    20    19   ar
    34    18    19   ar
