@<TRIPOS>MOLECULE
ZINC37893569_replica-1.pdb
 23 24 0 0 0
SMALL
GASTEIGER

@<TRIPOS>ATOM
      1  C9         0.1380   30.4210   56.1460 C.3     0  <0>0        0.1735
      2  C8        -0.6470   29.2400   55.5750 C.3     0  <0>0        0.2361
      3  O1         0.2570   28.1930   55.2190 O.3     0  <0>0       -0.4728
      4  C6        -0.0740   27.4290   54.1450 C.ar    0  <0>0        0.1384
      5  C5         0.3190   26.1000   54.0930 C.ar    0  <0>0        0.0369
      6  C4        -0.0180   25.3240   53.0000 C.ar    0  <0>0        0.0028
      7  C3        -0.7460   25.8720   51.9590 C.ar    0  <0>0       -0.0041
      8  C2        -1.1380   27.1970   52.0100 C.ar    0  <0>0       -0.0188
      9  C1        -1.9300   27.7920   50.8740 C.3     0  <0>0        0.0311
     10  C7        -0.7980   27.9790   53.0970 C.ar    0  <0>0        0.0326
     11  C10       -0.8070   31.6060   56.3600 C.3     0  <0>0        0.1206
     12  N1        -0.0240   32.8380   56.4890 N.pl3   0  <0>0       -0.3308
     13  H13        0.2620   33.3170   55.6950 H       0  <0>0        0.1469
     14  C11        0.3130   33.3220   57.7550 C.ar    0  <0>0        0.0411
     15  C16        0.6310   34.6630   57.9260 C.ar    0  <0>0       -0.0087
     16  C15        0.9580   35.1390   59.1800 C.ar    0  <0>0       -0.0025
     17  C17        0.6130   35.5990   56.7450 C.3     0  <0>0        0.0323
     18  C14        0.9810   34.2810   60.2640 C.ar    0  <0>0        0.0065
     19  C13        0.6700   32.9430   60.0970 C.ar    0  <0>0        0.0358
     20  C12        0.3360   32.4610   58.8460 C.ar    0  <0>0        0.0207
     21 Br          0.7030   31.7730   61.5820 Br      0  <0>0       -0.0490
     22  O2         1.1700   30.7950   55.2310 O.3     0  <0>0       -0.3791
     23  H20        0.9210   30.7090   54.3010 H       0  <0>0        0.2106
@<TRIPOS>BOND
     1     9     8    1
     2     7     8   ar
     3     7     6   ar
     4     8    10   ar
     5     6     5   ar
     6    10     4   ar
     7     5     4   ar
     8     4     3    1
     9    23    22    1
    10     3     2    1
    11    22     1    1
    12     2     1    1
    13    13    12    1
    14     1    11    1
    15    11    12    1
    16    12    14    1
    17    17    15    1
    18    14    15   ar
    19    14    20   ar
    20    15    16   ar
    21    20    19   ar
    22    16    18   ar
    23    19    18   ar
    24    19    21    1
