@<TRIPOS>MOLECULE
ZINC20554482_replica-1.pdb
 22 23 0 0 0
SMALL
GASTEIGER

@<TRIPOS>ATOM
      1  C4         9.6300   34.5510   59.4080 C.3     0  <0>0        0.0919
      2  C3         8.6840   33.4500   58.9250 C.3     0  <0>0        0.0241
      3  C2         7.5510   33.2690   59.9360 C.3     0  <0>0        0.0020
      4  C1         6.2200   33.6460   59.2840 C.3     0  <0>0        0.0001
      5  C5         9.1450   35.8860   58.9040 C.ar    0  <0>0       -0.0029
      6  C10        8.6780   36.0070   57.6090 C.ar    0  <0>0        0.0214
      7  C9         8.2340   37.2320   57.1470 C.ar    0  <0>0        0.1426
      8  C8         8.2560   38.3360   57.9810 C.ar    0  <0>0        0.0241
      9  C7         8.7280   38.2140   59.2740 C.ar    0  <0>0        0.0014
     10  C6         9.1680   36.9890   59.7380 C.ar    0  <0>0       -0.0026
     11  N1         7.7350   37.3630   55.7600 N.pl3   0  <0>0        0.0577
     12  O1         7.8960   36.4540   54.9660 O.2     0  <0>0       -0.1261
     13  O2         7.1630   38.3810   55.4120 O.2     0  <0>0       -0.1261
     14  N2         9.6570   34.5630   60.8730 N.pl3   0  <0>0       -0.3306
     15  H13        8.8130   34.9890   61.4350 H       0  <0>0        0.1471
     16  C11       10.7550   34.0320   61.5560 C.ar    0  <0>0        0.0449
     17  C16       10.7030   32.7390   62.0590 C.ar    0  <0>0        0.0148
     18  C15       11.7900   32.2180   62.7340 C.ar    0  <0>0        0.0080
     19  C14       12.9290   32.9830   62.9100 C.ar    0  <0>0        0.0346
     20  C13       12.9820   34.2720   62.4100 C.ar    0  <0>0        0.0080
     21 Br         14.4140   32.2660   63.8340 Br      0  <0>0       -0.0490
     22  C12       11.9010   34.7970   61.7290 C.ar    0  <0>0        0.0148
@<TRIPOS>BOND
     1    12    11    2
     2    13    11    2
     3    11     7    1
     4     7     6   ar
     5     7     8   ar
     6     6     5   ar
     7     8     9   ar
     8     5     1    1
     9     5    10   ar
    10     2     1    1
    11     2     3    1
    12     9    10   ar
    13     4     3    1
    14     1    14    1
    15    14    15    1
    16    14    16    1
    17    16    22   ar
    18    16    17   ar
    19    22    20   ar
    20    17    18   ar
    21    20    19   ar
    22    18    19   ar
    23    19    21    1
