@<TRIPOS>MOLECULE
ZINC66730349_replica-1.pdb
 22 22 0 0 0
SMALL
GASTEIGER

@<TRIPOS>ATOM
      1  C5         8.7810   34.5900   57.9340 C.2     0  <0>0        0.3355
      2  O1         8.4060   33.4780   57.6450 O.2     0  <0>0       -0.2483
      3  C4         8.2760   35.7790   57.1570 C.3     0  <0>0        0.1739
      4  C2         8.2930   37.0180   58.0550 C.3     0  <0>0        0.0290
      5  C1         8.5970   38.2570   57.2100 C.3     0  <0>0        0.0023
      6  C3         6.9260   37.1800   58.7250 C.3     0  <0>0        0.0023
      7  N2         6.9070   35.5230   56.7050 N.am    0  <0>0       -0.2624
      8  C12        6.5620   35.7730   55.4260 C.2     0  <0>0        0.4021
      9  O3         7.3860   36.2130   54.6490 O.2     0  <0>0       -0.2264
     10  H13        6.2490   35.1710   57.3250 H       0  <0>0        0.1532
     11  O4         5.3030   35.5370   55.0110 O.3     0  <0>0       -0.4306
     12  C13        4.2660   36.3140   55.6130 C.3     0  <0>0        0.2573
     13  O2         9.6460   34.7660   58.9450 O.3     0  <0>0       -0.4395
     14  C6         9.2210   34.3470   60.2430 C.3     0  <0>0        0.2675
     15  C7        10.3740   34.4510   61.2070 C.2     0  <0>0        0.1638
     16  N1        10.9580   33.3530   61.6470 N.2     0  <0>0       -0.3943
     17  C11       11.9740   33.3970   62.4880 C.2     0  <0>0        0.1700
     18  C10       12.4580   34.6080   62.9500 C.3     0  <0>0        0.0980
     19 Cl         12.7060   31.9180   63.0260 Cl      0  <0>0       -0.0522
     20  C9        11.8670   35.7820   62.5140 C.2     0  <0>0       -0.0039
     21  C8        10.8050   35.6970   61.6260 C.2     0  <0>0        0.0829
     22 Cl         10.0260   37.1360   61.0460 Cl      0  <0>0       -0.0801
@<TRIPOS>BOND
     1     9     8    2
     2    11     8    1
     3    11    12    1
     4     8     7   am
     5     7     3    1
     6     7    10    1
     7     3     1    1
     8     3     4    1
     9     5     4    1
    10     2     1    2
    11     1    13    1
    12     4     6    1
    13    13    14    1
    14    14    15    1
    15    22    21    1
    16    15    21    1
    17    15    16    2
    18    21    20    2
    19    16    17    2
    20    17    18    1
    21    17    19    1
    22    20    18    1
