@<TRIPOS>MOLECULE
ZINC44219212_replica-1.pdb
 21 22 0 0 0
SMALL
GASTEIGER

@<TRIPOS>ATOM
      1  C9        10.1850   36.6410   61.1220 C.3     0  <0>0        0.1622
      2  C8        10.7330   35.2150   61.2150 C.3     0  <0>0        0.1756
      3  O1        11.9520   35.2210   61.9590 O.3     0  <0>0       -0.3533
      4  C5        12.1430   34.0610   62.7730 C.3     0  <0>0        0.1153
      5  C4        13.5640   33.5290   62.5770 C.3     0  <0>0        0.0296
      6  C3        13.7670   32.2880   63.4470 C.3     0  <0>0        0.0025
      7  C2        12.7590   31.2100   63.0420 C.3     0  <0>0        0.0002
      8  C1        12.9630   29.9680   63.9120 C.3     0  <0>0        0.0000
      9  C7        11.3380   31.7420   63.2370 C.3     0  <0>0        0.0025
     10  C6        11.1340   32.9840   62.3660 C.3     0  <0>0        0.0296
     11  C10        9.4130   36.8000   59.8370 C.ar    0  <0>0        0.0067
     12  C15        8.7840   37.9970   59.5520 C.ar    0  <0>0       -0.0022
     13  C14        8.0790   38.1440   58.3720 C.ar    0  <0>0       -0.0045
     14  C13        7.9960   37.0900   57.4810 C.ar    0  <0>0       -0.0225
     15  C12        8.6200   35.8900   57.7690 C.ar    0  <0>0       -0.0045
     16  C11        9.3280   35.7450   58.9470 C.ar    0  <0>0       -0.0022
     17  C16        7.2230   37.2490   56.1970 C.3     0  <0>0        0.0224
     18  C17        7.2940   38.7060   55.7350 C.3     0  <0>0        0.0047
     19  C18        7.8280   36.3430   55.1220 C.3     0  <0>0        0.0047
     20  O2         9.3200   36.8930   62.2310 O.3     0  <0>0       -0.3775
     21  H28        8.3790   36.8180   62.0230 H       0  <0>0        0.2109
@<TRIPOS>BOND
     1    19    17    1
     2    18    17    1
     3    17    14    1
     4    14    15   ar
     5    14    13   ar
     6    15    16   ar
     7    13    12   ar
     8    16    11   ar
     9    12    11   ar
    10    11     1    1
    11     1     2    1
    12     1    20    1
    13     2     3    1
    14     3     4    1
    15    21    20    1
    16    10     4    1
    17    10     9    1
    18     5     4    1
    19     5     6    1
    20     7     9    1
    21     7     6    1
    22     7     8    1
