@<TRIPOS>MOLECULE
ZINC06207651_replica-1.pdb
 29 31 0 0 0
SMALL
GASTEIGER

@<TRIPOS>ATOM
      1  C9         8.5620   36.8660   58.6280 C.3     0  <0>0        0.0851
      2  C10        8.5460   38.3850   58.4480 C.3     0  <0>0        0.0209
      3  C11        8.6120   38.7240   56.9570 C.3     0  <0>0        0.0018
      4  C12        7.4040   38.1130   56.2430 C.3     0  <0>0        0.0015
      5  C13        7.4200   36.5940   56.4220 C.3     0  <0>0        0.0191
      6  C14        7.3560   36.2550   57.9130 C.3     0  <0>0        0.0933
      7  N2         7.3710   34.8010   58.0850 N.3     0  <0>0       -0.1791
      8  H21        8.0700   34.2700   57.6720 H       0  <0>0        0.1488
      9  S1         6.1940   34.0610   58.9860 S.O2    0  <0>0        0.0602
     10  O2         6.3000   34.5860   60.3020 O.2     0  <0>0       -0.1530
     11  O3         6.2860   32.6700   58.7110 O.2     0  <0>0       -0.1530
     12  C15        4.6400   34.5970   58.3530 C.ar    0  <0>0        0.1220
     13  C20        4.1720   34.0960   57.1520 C.ar    0  <0>0        0.0208
     14  C19        2.9500   34.5130   56.6580 C.ar    0  <0>0        0.0128
     15  C18        2.2010   35.4410   57.3600 C.ar    0  <0>0        0.0578
     16  C17        2.6690   35.9420   58.5610 C.ar    0  <0>0        0.0128
     17 Cl          0.6700   35.9690   56.7350 Cl      0  <0>0       -0.0822
     18  C16        3.8880   35.5200   59.0570 C.ar    0  <0>0        0.0208
     19  N1         8.5000   36.5420   60.0550 N.pl3   0  <0>0       -0.3328
     20  H12        7.6760   36.6770   60.5470 H       0  <0>0        0.1468
     21  C6         9.6310   36.0380   60.7080 C.ar    0  <0>0        0.0448
     22  C5        10.2430   36.7810   61.7090 C.ar    0  <0>0        0.0174
     23  C4        11.3590   36.2830   62.3530 C.ar    0  <0>0        0.0382
     24  C3        11.8680   35.0420   62.0000 C.ar    0  <0>0        0.1386
     25  C8        11.2580   34.3000   61.0000 C.ar    0  <0>0        0.0382
     26  C7        10.1380   34.7940   60.3590 C.ar    0  <0>0        0.0174
     27  O1        12.9660   34.5530   62.6350 O.3     0  <0>0       -0.4755
     28  C2        12.9850   33.1510   62.9120 C.3     0  <0>0        0.2055
     29  C1        14.3770   32.7470   63.4010 C.3     0  <0>0        0.0512
@<TRIPOS>BOND
     1     4     5    1
     2     4     3    1
     3     5     6    1
     4    14    13   ar
     5    14    15   ar
     6    17    15    1
     7     3     2    1
     8    13    12   ar
     9    15    16   ar
    10     8     7    1
    11     6     7    1
    12     6     1    1
    13     7     9    1
    14    12     9    1
    15    12    18   ar
    16     2     1    1
    17    16    18   ar
    18     1    19    1
    19    11     9    2
    20     9    10    2
    21    19    20    1
    22    19    21    1
    23    26    21   ar
    24    26    25   ar
    25    21    22   ar
    26    25    24   ar
    27    22    23   ar
    28    24    23   ar
    29    24    27    1
    30    27    28    1
    31    28    29    1
