@<TRIPOS>MOLECULE
ZINC37151917_replica-1.pdb
 21 22 0 0 0
SMALL
GASTEIGER

@<TRIPOS>ATOM
      1  C5         8.4340   36.1530   58.6400 C.ar    0  <0>0        0.1487
      2  C6         9.4490   35.2180   58.4740 C.ar    0  <0>0        0.0387
      3  C7        10.2740   34.9200   59.5430 C.ar    0  <0>0        0.0190
      4  C8        10.0520   35.5740   60.7540 C.ar    0  <0>0        0.0642
      5  C9         9.0180   36.4950   60.8450 C.ar    0  <0>0        0.1147
      6  N3         8.2550   36.7580   59.8030 N.ar    0  <0>0       -0.2251
      7  N4        10.8600   35.3040   61.8630 N.pl3   0  <0>0       -0.3328
      8  H10       10.8510   35.9010   62.6270 H       0  <0>0        0.1468
      9  C10       11.7210   34.1190   61.8700 C.3     0  <0>0        0.0691
     10  C11       10.8800   32.8800   62.1820 C.3     0  <0>0        0.0212
     11  C12       12.8050   34.2820   62.9370 C.3     0  <0>0        0.0195
     12  C13       14.1710   33.9570   62.3300 C.3     0  <0>0        0.0017
     13  C14       14.9510   33.0500   63.2840 C.3     0  <0>0        0.0001
     14  C15       15.4030   33.8590   64.5010 C.3     0  <0>0        0.0000
     15  C16       14.0530   31.8990   63.7410 C.3     0  <0>0        0.0000
     16  N2         7.5940   36.4610   57.5630 N.ar    0  <0>0       -0.2771
     17  C2         7.6390   37.5830   56.7990 C.ar    0  <0>0        0.1258
     18  C1         8.6100   38.7230   56.9670 C.3     0  <0>0        0.0722
     19  N1         6.7040   37.5070   55.8920 N.ar    0  <0>0       -0.2289
     20  C3         6.0330   36.3550   56.0420 C.ar    0  <0>0        0.1192
     21  C4         6.5680   35.6880   57.0810 C.ar    0  <0>0        0.1031
@<TRIPOS>BOND
     1    19    20   ar
     2    19    17   ar
     3    20    21   ar
     4    17    18    1
     5    17    16   ar
     6    21    16   ar
     7    16     1    1
     8     2     1   ar
     9     2     3   ar
    10     1     6   ar
    11     3     4   ar
    12     6     5   ar
    13     4     5   ar
    14     4     7    1
    15     7     9    1
    16     7     8    1
    17     9    10    1
    18     9    11    1
    19    12    11    1
    20    12    13    1
    21    13    15    1
    22    13    14    1
