@<TRIPOS>MOLECULE
ZINC37324890_replica-1.pdb
 19 21 0 0 0
SMALL
GASTEIGER

@<TRIPOS>ATOM
      1  C1         9.4050   36.5710   59.9280 C.ar    0  <0>0        0.0431
      2  C2         9.8600   35.2610   60.0990 C.ar    0  <0>0        0.0393
      3  C3         9.4480   34.2590   59.2180 C.ar    0  <0>0        0.0130
      4  C4         8.5920   34.5630   58.1780 C.ar    0  <0>0        0.0716
      5  C5         8.1410   35.8640   58.0100 C.ar    0  <0>0        0.1783
      6  C6         8.5490   36.8650   58.8850 C.ar    0  <0>0        0.1728
      7  O1         8.0960   38.1400   58.7070 O.3     0  <0>0       -0.4723
      8  C7         8.5740   38.8170   57.5430 C.3     0  <0>0        0.2094
      9  C8         7.7280   38.4670   56.3300 C.3     0  <0>0        0.0946
     10  C9         7.8350   36.9970   55.9530 C.3     0  <0>0        0.2094
     11  O2         7.2950   36.1700   56.9850 O.3     0  <0>0       -0.4718
     12 Br          8.0350   33.2070   56.9830 Br      0  <0>0       -0.0457
     13  C10       10.7760   34.9350   61.2120 C.2     0  <0>0        0.1566
     14  S1        11.6070   36.0310   62.3560 S.3     0  <0>0       -0.0751
     15  C12       12.4540   34.7650   63.2940 C.3     0  <0>0        0.1201
     16  C11       12.0310   33.6480   62.6470 C.2     0  <0>0        0.1149
     17  N1        11.2080   33.7530   61.6280 N.2     0  <0>0       -0.4021
     18  C13       12.5040   32.2900   63.0980 C.3     0  <0>0        0.1498
     19 Cl         14.2730   32.3530   63.4410 Cl      0  <0>0       -0.1060
@<TRIPOS>BOND
     1    10     9    1
     2    10    11    1
     3     9     8    1
     4    12     4    1
     5    11     5    1
     6     8     7    1
     7     5     4   ar
     8     5     6   ar
     9     4     3   ar
    10     7     6    1
    11     6     1   ar
    12     3     2   ar
    13     1     2   ar
    14     2    13    1
    15    13    17    2
    16    13    14    1
    17    17    16    2
    18    14    15    1
    19    16    18    1
    20    16    15    1
    21    18    19    1
