@<TRIPOS>MOLECULE
ZINC40315122_replica-1.pdb
 32 34 0 0 0
SMALL
GASTEIGER

@<TRIPOS>ATOM
      1  N1         0.8110   33.1450   57.4560 N.4     0  <0>0        0.3930
      2  H38        1.7010   32.6710   57.4010 H       0  <0>0       -0.0790
      3  C11       -0.1640   32.4600   56.5980 C.3     0  <0>0       -0.0430
      4  C10        0.5770   31.6050   55.5670 C.3     0  <0>0        0.1335
      5  C9        -0.4280   30.7300   54.8140 C.3     0  <0>0        0.2321
      6  O1        -0.3860   29.4000   55.3360 O.3     0  <0>0       -0.4729
      7  C5        -0.4210   28.3820   54.4360 C.ar    0  <0>0        0.1383
      8  C4         0.2210   27.1850   54.7170 C.ar    0  <0>0        0.0366
      9  C3         0.1850   26.1520   53.8010 C.ar    0  <0>0       -0.0015
     10  C2        -0.4910   26.3100   52.6050 C.ar    0  <0>0       -0.0256
     11  C1        -0.5300   25.1820   51.6080 C.3     0  <0>0        0.0307
     12  C7        -1.1270   27.5040   52.3210 C.ar    0  <0>0       -0.0228
     13  C6        -1.0980   28.5390   53.2360 C.ar    0  <0>0        0.0323
     14  C8        -1.8580   27.6760   51.0150 C.3     0  <0>0        0.0308
     15  O3         1.5280   30.7730   56.2340 O.3     0  <0>0       -0.3828
     16  H37        2.3250   30.5940   55.7160 H       0  <0>0        0.2104
     17  C12        0.9690   34.5350   57.0060 C.3     0  <0>0       -0.0497
     18  C13        2.3780   34.9940   57.2790 C.ar    0  <0>0       -0.0432
     19  C18        2.6420   35.8050   58.3680 C.ar    0  <0>0       -0.0067
     20  C17        3.9340   36.2220   58.6220 C.ar    0  <0>0       -0.0047
     21  C16        4.9630   35.8360   57.7820 C.ar    0  <0>0       -0.0225
     22  C15        4.6990   35.0290   56.6910 C.ar    0  <0>0       -0.0047
     23  C14        3.4060   34.6090   56.4390 C.ar    0  <0>0       -0.0067
     24  C19        6.3720   36.2950   58.0560 C.3     0  <0>0        0.0224
     25  C20        7.2520   35.0830   58.3700 C.3     0  <0>0        0.0047
     26  C21        6.9210   37.0170   56.8240 C.3     0  <0>0        0.0047
     27  C22        0.3340   33.1310   58.8470 C.3     0  <0>0       -0.0466
     28  C23        1.3010   32.3170   59.7090 C.3     0  <0>0        0.0948
     29  O2         2.3390   31.7680   58.8890 O.3     0  <0>0       -0.3584
     30  C26        3.6140   32.2900   59.3000 C.3     0  <0>0        0.1420
     31  C25        3.4260   32.7000   60.7820 C.3     0  <0>0        0.0345
     32  C24        1.9670   33.2340   60.7570 C.3     0  <0>0        0.0299
@<TRIPOS>BOND
     1    14    12    1
     2    11    10    1
     3    12    10   ar
     4    12    13   ar
     5    10     9   ar
     6    13     7   ar
     7     9     8   ar
     8     7     8   ar
     9     7     6    1
    10     5     6    1
    11     5     4    1
    12     4    15    1
    13     4     3    1
    14    16    15    1
    15    23    22   ar
    16    23    18   ar
    17     3     1    1
    18    22    21   ar
    19    26    24    1
    20    17    18    1
    21    17     1    1
    22    18    19   ar
    23     2     1    1
    24     1    27    1
    25    21    24    1
    26    21    20   ar
    27    24    25    1
    28    19    20   ar
    29    27    28    1
    30    29    30    1
    31    29    28    1
    32    30    31    1
    33    28    32    1
    34    32    31    1
