@<TRIPOS>MOLECULE
ZINC05371577_replica-1.pdb
 22 24 0 0 0
SMALL
GASTEIGER

@<TRIPOS>ATOM
      1  N1         5.1960   34.5880   57.7120 N.am    0  <0>0       -0.2227
      2  C8         6.2850   35.1780   58.1750 C.2     0  <0>0        0.2634
      3  O1         6.5460   35.1920   59.3640 O.2     0  <0>0       -0.2687
      4  C9         7.1630   35.8220   57.1840 C.2     0  <0>0        0.0883
      5  C10        8.3320   36.4980   57.3680 C.2     0  <0>0        0.0486
      6  S1         6.2790   35.4650   55.6720 S.3     0  <0>0       -0.0600
      7  C16        4.9130   34.5690   56.3930 C.2     0  <0>0        0.1250
      8  S2         3.5720   33.8580   55.6030 S.2     0  <0>0       -0.0269
      9  C6         4.3200   33.9630   58.6090 C.ar    0  <0>0        0.0550
     10  C5         3.2220   34.6540   59.1040 C.ar    0  <0>0       -0.0078
     11  C4         2.3580   34.0330   59.9850 C.ar    0  <0>0       -0.0033
     12  C17        2.9710   36.0770   58.6770 C.3     0  <0>0        0.0323
     13  C3         2.5910   32.7300   60.3810 C.ar    0  <0>0       -0.0045
     14  C2         3.6860   32.0410   59.8950 C.ar    0  <0>0       -0.0206
     15  C1         3.9370   30.6210   60.3300 C.3     0  <0>0        0.0311
     16  C7         4.5520   32.6540   59.0100 C.ar    0  <0>0        0.0107
     17  C11        8.9820   36.4590   58.6230 C.ar    0  <0>0        0.1456
     18  O2         9.7390   35.4470   59.0970 O.2     0  <0>0       -0.4577
     19  C14       10.1890   35.7620   60.3200 C.ar    0  <0>0        0.1233
     20  C13        9.7250   36.9840   60.6610 C.ar    0  <0>0        0.0361
     21  C15       11.0680   34.8890   61.1790 C.3     0  <0>0        0.0725
     22  C12        8.9540   37.4490   59.5850 C.ar    0  <0>0        0.0403
@<TRIPOS>BOND
     1     8     7    2
     2     6     7    1
     3     6     4    1
     4     7     1    1
     5     4     5    2
     6     4     2    1
     7     5    17    1
     8     1     2   am
     9     1     9    1
    10     2     3    2
    11     9    16   ar
    12     9    10   ar
    13    17    18   ar
    14    17    22   ar
    15    12    10    1
    16    16    14   ar
    17    18    19   ar
    18    10    11   ar
    19    22    20   ar
    20    14    15    1
    21    14    13   ar
    22    11    13   ar
    23    19    20   ar
    24    19    21    1
