@<TRIPOS>MOLECULE
ZINC04023380_replica-1.pdb
 24 25 0 0 0
SMALL
GASTEIGER

@<TRIPOS>ATOM
      1  C4         9.2980   36.2510   59.6910 C.3     0  <0>0        0.1188
      2  C5         8.8470   36.0060   58.2550 C.3     0  <0>0        0.0454
      3  C6         7.8920   34.8190   58.1220 C.3     0  <0>0        0.0122
      4  C7         6.7460   35.0160   59.1140 C.3     0  <0>0        0.0719
      5  C8         7.3000   35.1450   60.5290 C.3     0  <0>0        0.1458
      6  O1         8.2160   36.2250   60.6080 O.3     0  <0>0       -0.3558
      7  C9         5.9400   36.2520   58.7300 C.3     0  <0>0        0.0272
      8  C10        6.7710   37.3010   58.0600 C.2     0  <0>0       -0.0347
      9  C11        8.0430   37.2260   57.8380 C.2     0  <0>0       -0.0461
     10  C12        8.7490   38.3580   57.1500 C.3     0  <0>0        0.0261
     11  C13        4.8020   35.8380   57.7940 C.3     0  <0>0        0.0049
     12  C19        8.5770   33.4740   58.3110 C.3     0  <0>0        0.0006
     13  C14        5.8280   33.7930   59.0590 C.3     0  <0>0        0.2126
     14  O2         5.4680   33.3960   60.4080 O.3     0  <0>0       -0.4346
     15  C15        4.2130   32.9480   60.6000 C.2     0  <0>0        0.4016
     16  O3         4.0100   31.7610   60.7630 O.2     0  <0>0       -0.2264
     17  N1         3.1810   33.8160   60.6100 N.am    0  <0>0       -0.2707
     18  H23        3.3430   34.7630   60.4800 H       0  <0>0        0.1527
     19  C16        1.8160   33.3280   60.8190 C.3     0  <0>0        0.0927
     20  C17        0.8190   34.3700   60.3070 C.3     0  <0>0        0.0214
     21  C18        1.4270   35.1150   59.1180 C.3     0  <0>0        0.0018
     22  C3        10.4240   35.3150   60.1220 C.3     0  <0>0        0.0299
     23  C2        10.8730   35.6750   61.5390 C.3     0  <0>0        0.0025
     24  C1        11.9730   34.7110   61.9860 C.3     0  <0>0        0.0001
@<TRIPOS>BOND
     1    10     9    1
     2    11     7    1
     3     9     8    2
     4     9     2    1
     5     8     7    1
     6     3     2    1
     7     3    12    1
     8     3     4    1
     9     2     1    1
    10     7     4    1
    11    13     4    1
    12    13    14    1
    13     4     5    1
    14    21    20    1
    15     1    22    1
    16     1     6    1
    17    22    23    1
    18    20    19    1
    19    14    15    1
    20    18    17    1
    21     5     6    1
    22    15    17   am
    23    15    16    2
    24    17    19    1
    25    23    24    1
