@<TRIPOS>MOLECULE
ZINC25252393_replica-1.pdb
 28 30 0 0 0
SMALL
GASTEIGER

@<TRIPOS>ATOM
      1  C9         9.0420   34.1800   59.2240 C.2     0  <0>0        0.0135
      2  C10        9.7370   34.8930   60.1580 C.2     0  <0>0        0.1042
      3  C11        9.5580   36.3100   60.2580 C.1     0  <0>0        0.1035
      4  N1         9.4160   37.4340   60.3360 N.1     0  <0>0       -0.1907
      5  C12       10.6720   34.2020   61.0650 C.2     0  <0>0        0.1706
      6  S1        10.5790   32.5400   61.7190 S.3     0  <0>0       -0.0525
      7  C18       12.0760   32.5950   62.6760 C.2     0  <0>0        0.0574
      8  C13       12.5530   33.9020   62.4180 C.2     0  <0>0        0.1374
      9  C17       12.7420   31.7130   63.4900 C.2     0  <0>0       -0.0124
     10  N2        11.7910   34.6510   61.5980 N.2     0  <0>0       -0.3942
     11  C14       13.7680   34.2590   63.0500 C.2     0  <0>0        0.0325
     12  C15       14.4190   33.3780   63.8550 C.2     0  <0>0        0.0561
     13  C16       13.9260   32.1020   64.0890 C.3     0  <0>0        0.0569
     14  C19       15.7100   33.7980   64.5100 C.3     0  <0>0        0.4153
     15  F1        15.4870   34.9370   65.2920 F       0  <0>0       -0.1662
     16  F2        16.1800   32.7610   65.3220 F       0  <0>0       -0.1662
     17  F3        16.6600   34.0870   63.5250 F       0  <0>0       -0.1662
     18  C4         8.0050   34.8390   58.4230 C.ar    0  <0>0        0.0048
     19  C3         6.7160   35.0090   58.9480 C.ar    0  <0>0        0.0401
     20  C2         5.7440   35.6310   58.1900 C.ar    0  <0>0        0.1732
     21  C7         6.0440   36.0870   56.9070 C.ar    0  <0>0        0.1828
     22  C6         7.3210   35.9200   56.3850 C.ar    0  <0>0        0.0946
     23  C5         8.3000   35.3050   57.1360 C.ar    0  <0>0        0.0147
     24 Cl          7.6860   36.4910   54.7880 Cl      0  <0>0       -0.0790
     25  O1         4.4930   35.7980   58.6950 O.3     0  <0>0       -0.4683
     26  C1         3.7380   34.6150   58.9630 C.3     0  <0>0        0.2526
     27  O2         5.0840   36.6990   56.1650 O.3     0  <0>0       -0.4675
     28  C8         4.2540   35.8580   55.3590 C.3     0  <0>0        0.2527
@<TRIPOS>BOND
     1    24    22    1
     2    28    27    1
     3    27    21    1
     4    22    21   ar
     5    22    23   ar
     6    21    20   ar
     7    23    18   ar
     8    20    25    1
     9    20    19   ar
    10    18    19   ar
    11    18     1    1
    12    25    26    1
    13     1     2    2
    14     2     3    1
    15     2     5    1
    16     3     4    3
    17     5    10    2
    18     5     6    1
    19    10     8    2
    20     6     7    1
    21     8     7    1
    22     8    11    1
    23     7     9    2
    24    11    12    2
    25     9    13    1
    26    17    14    1
    27    12    13    1
    28    12    14    1
    29    14    15    1
    30    14    16    1
