@<TRIPOS>MOLECULE
ZINC57647966_replica-1.pdb
 26 27 0 0 0
SMALL
GASTEIGER

@<TRIPOS>ATOM
      1  N1         0.3070   33.1770   56.5930 N.3     0  <0>0       -0.2874
      2  H13       -0.5890   33.0790   57.0470 H       0  <0>0        0.1239
      3  C4         1.3390   33.5950   57.5510 C.3     0  <0>0        0.0771
      4  C2         1.4800   35.1180   57.5160 C.3     0  <0>0        0.0186
      5  C1         2.8240   35.4910   56.8880 C.3     0  <0>0        0.0017
      6  C3         0.3440   35.7160   56.6840 C.3     0  <0>0        0.0017
      7  C5         0.9420   33.1590   58.9380 C.ar    0  <0>0       -0.0079
      8  C10        0.5600   34.1020   59.8750 C.ar    0  <0>0       -0.0021
      9  C9         0.1900   33.7030   61.1450 C.ar    0  <0>0        0.0111
     10  C8         0.2140   32.3620   61.4830 C.ar    0  <0>0        0.0577
     11  C7         0.6030   31.4190   60.5480 C.ar    0  <0>0        0.0111
     12 Cl         -0.2440   31.8600   63.0820 Cl      0  <0>0       -0.0822
     13  C6         0.9670   31.8190   59.2760 C.ar    0  <0>0       -0.0021
     14  C11        0.6920   31.9330   55.9140 C.3     0  <0>0        0.1551
     15  C12       -0.5390   31.2590   55.3650 C.2     0  <0>0        0.2388
     16  O1        -1.5850   31.3150   55.9760 O.2     0  <0>0       -0.2736
     17  N2        -0.4780   30.5940   54.1930 N.am    0  <0>0       -0.2993
     18  H16        0.3590   30.5490   53.7040 H       0  <0>0        0.1498
     19  C13       -1.6750   29.9390   53.6600 C.3     0  <0>0        0.1164
     20  C14       -1.2980   28.6030   53.0740 C.ar    0  <0>0       -0.0024
     21  C19       -0.4560   27.7570   53.7720 C.ar    0  <0>0       -0.0003
     22  C18       -0.1130   26.5290   53.2370 C.ar    0  <0>0        0.0294
     23  C17       -0.6040   26.1520   51.9990 C.ar    0  <0>0        0.1401
     24  C16       -1.4420   27.0030   51.2990 C.ar    0  <0>0        0.0294
     25  F1        -0.2650   24.9540   51.4740 F       0  <0>0       -0.2042
     26  C15       -1.7880   28.2280   51.8370 C.ar    0  <0>0       -0.0003
@<TRIPOS>BOND
     1    24    26   ar
     2    24    23   ar
     3    25    23    1
     4    26    20   ar
     5    23    22   ar
     6    20    19    1
     7    20    21   ar
     8    22    21   ar
     9    19    17    1
    10    18    17    1
    11    17    15   am
    12    15    14    1
    13    15    16    2
    14    14     1    1
    15     1     2    1
    16     1     3    1
    17     6     4    1
    18     5     4    1
    19     4     3    1
    20     3     7    1
    21     7    13   ar
    22     7     8   ar
    23    13    11   ar
    24     8     9   ar
    25    11    10   ar
    26     9    10   ar
    27    10    12    1
