@<TRIPOS>MOLECULE
ZINC40845548_replica-1.pdb
 25 26 0 0 0
SMALL
GASTEIGER

@<TRIPOS>ATOM
      1  C3         4.3470   35.8550   56.2790 C.2     0  <0>0        0.2768
      2  O1         3.9940   36.7740   55.5710 O.2     0  <0>0       -0.2699
      3  N1         5.5290   35.2470   56.0540 N.am    0  <0>0       -0.2291
      4  H5         5.8120   34.5120   56.6210 H       0  <0>0        0.1707
      5  N2         6.3500   35.6780   55.0040 N.3     0  <0>0       -0.1265
      6  C4         7.3640   36.4500   55.2470 C.3     0  <0>0        0.1378
      7  C5         8.0030   36.4290   56.5770 C.ar    0  <0>0       -0.0030
      8  C10        8.6800   35.2870   57.0130 C.ar    0  <0>0       -0.0031
      9  C9         9.2810   35.2770   58.2540 C.ar    0  <0>0       -0.0046
     10  C8         9.2040   36.3900   59.0730 C.ar    0  <0>0       -0.0225
     11  C7         8.5310   37.5230   58.6490 C.ar    0  <0>0       -0.0046
     12  C6         7.9310   37.5490   57.4080 C.ar    0  <0>0       -0.0031
     13  C11        9.8570   36.3700   60.4300 C.3     0  <0>0        0.0224
     14  C12        8.8350   36.7760   61.4940 C.3     0  <0>0        0.0047
     15  C13       10.3690   34.9600   60.7280 C.3     0  <0>0        0.0047
     16  C2         3.4640   35.3910   57.4090 C.3     0  <0>0        0.2424
     17  C1         2.0780   36.0260   57.2670 C.3     0  <0>0        0.0574
     18  O2         4.0420   35.7840   58.6560 O.3     0  <0>0       -0.4699
     19  C14        4.5600   34.7970   59.4330 C.ar    0  <0>0        0.1391
     20  C19        3.7230   33.8500   60.0040 C.ar    0  <0>0        0.0378
     21  C18        4.2530   32.8440   60.7890 C.ar    0  <0>0        0.0145
     22  C17        5.6160   32.7870   61.0150 C.ar    0  <0>0        0.0579
     23  C16        6.4530   33.7350   60.4510 C.ar    0  <0>0        0.0145
     24 Cl          6.2790   31.5260   62.0070 Cl      0  <0>0       -0.0822
     25  C15        5.9270   34.7380   59.6610 C.ar    0  <0>0        0.0378
@<TRIPOS>BOND
     1     5     6    1
     2     5     3    1
     3     6     7    1
     4     2     1    2
     5     3     1   am
     6     3     4    1
     7     1    16    1
     8     7     8   ar
     9     7    12   ar
    10     8     9   ar
    11    17    16    1
    12    12    11   ar
    13    16    18    1
    14     9    10   ar
    15    11    10   ar
    16    18    19    1
    17    10    13    1
    18    19    25   ar
    19    19    20   ar
    20    25    23   ar
    21    20    21   ar
    22    13    15    1
    23    13    14    1
    24    23    22   ar
    25    21    22   ar
    26    22    24    1
