@<TRIPOS>MOLECULE
ZINC14667974_replica-1.pdb
 29 31 0 0 0
SMALL
GASTEIGER

@<TRIPOS>ATOM
      1  C10        1.2450   31.9330   57.3190 C.2     0  <0>0        0.2643
      2  O2         1.8040   30.9440   57.7510 O.2     0  <0>0       -0.2685
      3  N1         0.6380   31.8940   56.1160 N.am    0  <0>0       -0.2300
      4  H11        0.1920   32.6830   55.7720 H       0  <0>0        0.1731
      5  N2         0.6500   30.7120   55.3650 N.am    0  <0>0       -0.2297
      6  C11       -0.4640   29.9590   55.2760 C.2     0  <0>0        0.2682
      7  O3        -1.4800   30.3060   55.8480 O.2     0  <0>0       -0.2680
      8  H12        1.4600   30.4350   54.9090 H       0  <0>0        0.1731
      9  C12       -0.4520   28.7190   54.4880 C.ar    0  <0>0        0.0948
     10  S1         0.3830   27.1830   54.8460 S.2     0  <0>0       -0.0815
     11  C19       -0.1300   26.2700   53.4130 C.ar    0  <0>0        0.0304
     12  C14       -0.9340   27.1930   52.7040 C.ar    0  <0>0        0.0172
     13  C18        0.0990   24.9910   52.9530 C.ar    0  <0>0        0.0065
     14  C13       -1.0720   28.4600   53.3060 C.ar    0  <0>0        0.0685
     15  C15       -1.4960   26.7360   51.4850 C.ar    0  <0>0        0.0014
     16 Cl         -2.0330   29.6860   52.5400 Cl      0  <0>0       -0.0816
     17  C16       -1.2630   25.4730   51.0440 C.ar    0  <0>0        0.0001
     18  C17       -0.4720   24.5840   51.7640 C.ar    0  <0>0        0.0005
     19  C9         1.2320   33.1780   58.1110 C.ar    0  <0>0        0.0892
     20  C4         1.8060   34.3470   57.5960 C.ar    0  <0>0        0.1427
     21  C5         1.7880   35.5120   58.3490 C.ar    0  <0>0        0.0376
     22  C6         1.2050   35.5190   59.6000 C.ar    0  <0>0        0.0098
     23  C7         0.6350   34.3630   60.1140 C.ar    0  <0>0        0.0349
     24  C8         0.6410   33.1990   59.3770 C.ar    0  <0>0        0.0143
     25 Br         -0.1590   34.3890   61.8300 Br      0  <0>0       -0.0490
     26  O1         2.3770   34.3410   56.3650 O.3     0  <0>0       -0.4790
     27  C2         3.7620   34.6870   56.2910 C.3     0  <0>0        0.1661
     28  C1         4.6010   33.5720   56.9210 C.3     0  <0>0        0.0472
     29  C3         4.1650   34.8630   54.8260 C.3     0  <0>0        0.0472
@<TRIPOS>BOND
     1    17    15   ar
     2    17    18   ar
     3    15    12   ar
     4    18    13   ar
     5    16    14    1
     6    12    14   ar
     7    12    11   ar
     8    13    11   ar
     9    14     9   ar
    10    11    10   ar
    11     9    10   ar
    12     9     6    1
    13    29    27    1
    14     8     5    1
    15     6     5   am
    16     6     7    2
    17     5     3    1
    18     4     3    1
    19     3     1   am
    20    27    26    1
    21    27    28    1
    22    26    20    1
    23     1     2    2
    24     1    19    1
    25    20    19   ar
    26    20    21   ar
    27    19    24   ar
    28    21    22   ar
    29    24    23   ar
    30    22    23   ar
    31    23    25    1
