@<TRIPOS>MOLECULE
ZINC23242136_replica-1.pdb
 23 24 0 0 0
SMALL
GASTEIGER

@<TRIPOS>ATOM
      1  C6         0.3720   32.8070   57.5050 C.2     0  <0>0        0.1265
      2  C7         0.5540   31.9850   58.5800 C.3     0  <0>0        0.1910
      3  C8         0.4540   30.5940   58.3970 C.1     0  <0>0        0.1980
      4  O2         0.6110   29.8310   59.3370 O.2     0  <0>0       -0.2130
      5  N2         0.1820   30.1190   57.1640 N.2     0  <0>0       -0.2640
      6  C9         0.0100   30.9870   56.1280 C.1     0  <0>0        0.1787
      7  N3         0.1100   32.2910   56.3080 N.2     0  <0>0       -0.3415
      8  C5         0.4680   34.3010   57.6760 C.3     0  <0>0        0.1414
      9  C4         1.8190   34.7740   57.2060 C.2     0  <0>0        0.2296
     10  N1         2.0470   34.9590   55.8910 N.am    0  <0>0       -0.3001
     11  H6         1.2470   34.7660   55.1610 H       0  <0>0        0.1498
     12  O1         2.7000   34.9870   58.0110 O.2     0  <0>0       -0.2746
     13  C3         3.3600   35.4190   55.4330 C.3     0  <0>0        0.1161
     14  C2         4.0980   34.2750   54.7880 C.2     0  <0>0       -0.0049
     15  C1         5.0780   34.5140   53.9520 C.2     0  <0>0       -0.0032
     16  S1        -0.3530   30.3590   54.5230 S.3     0  <0>0       -0.0127
     17  C10       -0.5190   28.5970   54.9060 C.3     0  <0>0        0.1006
     18  C11       -0.7170   27.8220   53.6280 C.ar    0  <0>0       -0.0103
     19  C16       -1.4120   28.3900   52.5770 C.ar    0  <0>0       -0.0034
     20  C15       -1.5940   27.6800   51.4050 C.ar    0  <0>0       -0.0003
     21  C14       -1.0800   26.4020   51.2840 C.ar    0  <0>0       -0.0000
     22  C13       -0.3850   25.8350   52.3350 C.ar    0  <0>0       -0.0003
     23  C12       -0.2030   26.5450   53.5080 C.ar    0  <0>0       -0.0034
@<TRIPOS>BOND
     1    21    20   ar
     2    21    22   ar
     3    20    19   ar
     4    22    23   ar
     5    19    18   ar
     6    23    18   ar
     7    18    17    1
     8    15    14    2
     9    16    17    1
    10    16     6    1
    11    14    13    1
    12    11    10    1
    13    13    10    1
    14    10     9   am
    15     6     7    2
    16     6     5    2
    17     7     1    2
    18     5     3    2
    19     9     8    1
    20     9    12    2
    21     1     8    1
    22     1     2    1
    23     3     2    1
    24     3     4    2
