@<TRIPOS>MOLECULE
ZINC49889594_replica-1.pdb
 20 21 0 0 0
SMALL
GASTEIGER

@<TRIPOS>ATOM
      1  C4         8.3890   37.0190   60.1620 C.3     0  <0>0       -0.0341
      2  C5         8.8340   36.7760   61.5790 C.3     0  <0>0       -0.0190
      3  C6        10.3680   36.6080   61.5900 C.3     0  <0>0       -0.0020
      4  C7        10.7820   35.2730   61.1830 C.3     0  <0>0        0.0000
      5  C8        10.3570   34.9410   59.7380 C.3     0  <0>0        0.0024
      6  C9         8.9070   34.5400   59.7460 C.3     0  <0>0        0.0274
      7  C10        7.9650   35.7210   59.4490 C.3     0  <0>0        0.0959
      8  O1         6.6430   35.3760   59.8690 O.3     0  <0>0       -0.3608
      9  C11        5.7420   35.1100   58.7920 C.3     0  <0>0        0.1150
     10  C16        4.4780   35.9540   58.9660 C.3     0  <0>0        0.0295
     11  C15        3.5130   35.6700   57.8120 C.3     0  <0>0        0.0025
     12  C14        4.1850   36.0260   56.4850 C.3     0  <0>0        0.0002
     13  C13        5.4500   35.1820   56.3110 C.3     0  <0>0        0.0025
     14  C12        6.4150   35.4660   57.4650 C.3     0  <0>0        0.0295
     15  N1         7.2520   37.9490   60.1740 N.4     0  <0>0        0.3867
     16  H10        7.3090   38.5370   60.9930 H       0  <0>0       -0.0843
     17  H32        6.3900   37.4260   60.1930 H       0  <0>0       -0.0843
     18  C3         7.2920   38.7860   58.9670 C.3     0  <0>0       -0.0815
     19  C2         8.6630   38.6520   58.3010 C.3     0  <0>0       -0.0234
     20  C1         8.4830   38.5270   56.7860 C.3     0  <0>0       -0.0023
@<TRIPOS>BOND
     1    13    12    1
     2    13    14    1
     3    12    11    1
     4    20    19    1
     5    14     9    1
     6    11    10    1
     7    19    18    1
     8     9    10    1
     9     9     8    1
    10    18    15    1
    11     7     6    1
    12     7     8    1
    13     7     1    1
    14     5     6    1
    15     5     4    1
    16     1    15    1
    17     1     2    1
    18    15    17    1
    19    15    16    1
    20     4     3    1
    21     2     3    1
