@<TRIPOS>MOLECULE
ZINC36958893_replica-1.pdb
 19 19 0 0 0
SMALL
GASTEIGER

@<TRIPOS>ATOM
      1  C7         9.2590   35.7880   58.5270 C.ar    0  <0>0        0.0726
      2  C8         9.9990   34.9670   59.3610 C.ar    0  <0>0        0.0230
      3  C9        10.3520   35.4110   60.6370 C.ar    0  <0>0        0.0770
      4  C10        9.9580   36.6820   61.0640 C.ar    0  <0>0        0.0088
      5  C11        9.2220   37.4930   60.2260 C.ar    0  <0>0        0.0311
      6  C12        8.8750   37.0550   58.9590 C.ar    0  <0>0        0.1531
      7  F1         8.1590   37.8570   58.1410 F       0  <0>0       -0.2029
      8  N1         8.9030   35.3470   57.2480 N.pl3   0  <0>0       -0.3323
      9  H14        9.4990   35.5000   56.4990 H       0  <0>0        0.1468
     10  C5         7.6290   34.6550   57.0400 C.3     0  <0>0        0.0691
     11  C6         7.8970   33.2210   56.5790 C.3     0  <0>0        0.0212
     12  C3         6.8150   35.3910   55.9740 C.3     0  <0>0        0.0179
     13  C4         7.7400   36.3050   55.1680 C.3     0  <0>0        0.0017
     14  C2         5.7300   36.2310   56.6490 C.3     0  <0>0        0.0016
     15  C1         5.3880   35.6210   58.0110 C.3     0  <0>0        0.0001
     16  C13       11.1410   34.5410   61.5320 C.2     0  <0>0        0.3414
     17  O1        12.0670   35.0030   62.1670 O.2     0  <0>0       -0.2449
     18  O2        10.8330   33.2340   61.6430 O.3     0  <0>0       -0.4413
     19  C14       11.3640   32.5360   62.7710 C.3     0  <0>0        0.2560
@<TRIPOS>BOND
     1    13    12    1
     2    12    14    1
     3    12    10    1
     4     9     8    1
     5    11    10    1
     6    14    15    1
     7    10     8    1
     8     8     1    1
     9     7     6    1
    10     1     6   ar
    11     1     2   ar
    12     6     5   ar
    13     2     3   ar
    14     5     4   ar
    15     3     4   ar
    16     3    16    1
    17    16    18    1
    18    16    17    2
    19    18    19    1
