@<TRIPOS>MOLECULE
ZINC48748861_replica-1.pdb
 19 20 0 0 0
SMALL
GASTEIGER

@<TRIPOS>ATOM
      1  N3         0.6220   30.3050   55.5570 N.am    0  <0>0       -0.2588
      2  C7        -0.4140   29.4460   55.4950 C.2     0  <0>0        0.2575
      3  O1        -1.2590   29.4450   56.3710 O.2     0  <0>0       -0.2692
      4  H10        1.2940   30.3060   54.8590 H       0  <0>0        0.1571
      5  C6         0.7270   31.1900   56.6240 C.ar    0  <0>0        0.1880
      6  N2         0.2850   32.4330   56.7480 N.ar    0  <0>0       -0.1256
      7  N1         0.4700   33.1040   57.8000 N.ar    0  <0>0       -0.1440
      8  C5         1.1110   32.6110   58.8420 C.ar    0  <0>0        0.1116
      9  S1         1.5040   30.9780   58.2230 S.2     0  <0>0       -0.0347
     10  C2         1.4290   33.2460   60.1720 C.3     0  <0>0        0.0431
     11  C1         2.9240   33.5640   60.2400 C.3     0  <0>0        0.0065
     12  C3         1.0600   32.2800   61.3000 C.3     0  <0>0        0.0065
     13  C4         0.6250   34.5380   60.3240 C.3     0  <0>0        0.0065
     14  C8        -0.5260   28.5140   54.3710 C.ar    0  <0>0        0.0893
     15  S2         0.3030   26.9560   54.1170 S.2     0  <0>0       -0.0814
     16  C11       -0.3630   26.5380   52.6320 C.ar    0  <0>0        0.0361
     17  C10       -1.1930   27.5690   52.3370 C.ar    0  <0>0        0.0143
     18  C9        -1.3010   28.6150   53.2230 C.ar    0  <0>0        0.0455
     19 Br         -2.4320   30.0960   52.9000 Br      0  <0>0       -0.0483
@<TRIPOS>BOND
     1    17    16   ar
     2    17    18   ar
     3    16    15   ar
     4    19    18    1
     5    18    14   ar
     6    15    14   ar
     7    14     2    1
     8     4     1    1
     9     2     1   am
    10     2     3    2
    11     1     5    1
    12     5     6   ar
    13     5     9   ar
    14     6     7   ar
    15     7     8   ar
    16     9     8   ar
    17     8    10    1
    18    10    11    1
    19    10    13    1
    20    10    12    1
