@<TRIPOS>MOLECULE
ZINC67259577_replica-1.pdb
 29 32 0 0 0
SMALL
GASTEIGER

@<TRIPOS>ATOM
      1  C10        5.8630   32.1420   58.0030 C.ar    0  <0>0       -0.0102
      2  C11        5.6630   32.2250   59.3690 C.ar    0  <0>0       -0.0034
      3  C12        4.3830   32.3300   59.8830 C.ar    0  <0>0        0.0004
      4  C13        3.2960   32.3540   59.0330 C.ar    0  <0>0        0.0103
      5  C14        3.4900   32.2710   57.6530 C.ar    0  <0>0        0.0682
      6  C15        4.7860   32.1710   57.1420 C.ar    0  <0>0        0.0069
      7  C16        2.3660   32.2960   56.7670 C.1     0  <0>0        0.1004
      8  N3         1.4750   32.3150   56.0620 N.1     0  <0>0       -0.1908
      9  C9         7.2620   32.0280   57.4530 C.3     0  <0>0        0.0922
     10  S1         7.6800   33.5410   56.5450 S.3     0  <0>0       -0.0619
     11  C8         8.3260   34.6160   57.7840 C.2     0  <0>0        0.2165
     12  N1         7.9740   35.9360   57.7480 N.am    0  <0>0       -0.2241
     13  C7         8.4460   36.7970   58.6800 C.2     0  <0>0        0.2422
     14  C5         9.3400   36.2550   59.7130 C.3     0  <0>0        0.1511
     15  O1         8.1420   37.9750   58.6620 O.2     0  <0>0       -0.2737
     16  C4         9.6500   34.8760   59.6710 C.2     0  <0>0        0.1236
     17  C6         9.8790   37.0600   60.7150 C.2     0  <0>0       -0.0103
     18  C3        10.4980   34.3390   60.6440 C.2     0  <0>0        0.0284
     19  N2         9.1210   34.1130   58.6950 N.2     0  <0>0       -0.3840
     20  C2        11.0130   35.1500   61.6150 C.2     0  <0>0        0.0020
     21  C1        10.7060   36.5050   61.6520 C.2     0  <0>0       -0.0036
     22  C17        7.0780   36.4220   56.6960 C.3     0  <0>0        0.1276
     23  C18        5.6460   36.2110   57.1180 C.ar    0  <0>0       -0.0018
     24  C23        5.3280   36.1170   58.4590 C.ar    0  <0>0       -0.0017
     25  C22        4.0150   35.9280   58.8460 C.ar    0  <0>0        0.0111
     26  C21        3.0200   35.8230   57.8890 C.ar    0  <0>0        0.0577
     27  C20        3.3400   35.9130   56.5470 C.ar    0  <0>0        0.0111
     28 Cl          1.3710   35.5810   58.3740 Cl      0  <0>0       -0.0822
     29  C19        4.6540   36.1060   56.1610 C.ar    0  <0>0       -0.0017
@<TRIPOS>BOND
     1     8     7    3
     2    29    27   ar
     3    29    23   ar
     4    10     9    1
     5    10    11    1
     6    27    26   ar
     7    22    23    1
     8    22    12    1
     9     7     5    1
    10    23    24   ar
    11     6     5   ar
    12     6     1   ar
    13     9     1    1
    14     5     4   ar
    15    12    11    1
    16    12    13   am
    17    11    19    2
    18    26    28    1
    19    26    25   ar
    20     1     2   ar
    21    24    25   ar
    22    15    13    2
    23    13    14    1
    24    19    16    2
    25     4     3   ar
    26     2     3   ar
    27    16    14    1
    28    16    18    1
    29    14    17    1
    30    18    20    2
    31    17    21    2
    32    20    21    1
