@<TRIPOS>MOLECULE
ZINC33318829_replica-1.pdb
 25 26 0 0 0
SMALL
GASTEIGER

@<TRIPOS>ATOM
      1  C9        -1.8080   30.2670   54.9890 C.2     0  <0>0        0.2811
      2  O2        -2.6790   30.9820   55.4410 O.2     0  <0>0       -0.2697
      3  N1        -0.6040   30.2110   55.5910 N.am    0  <0>0       -0.2289
      4  H9         0.1850   29.5620   55.1810 H       0  <0>0        0.1707
      5  N2        -0.3560   30.9760   56.7370 N.3     0  <0>0       -0.1265
      6  C10       -0.5820   30.4770   57.9130 C.3     0  <0>0        0.1378
      7  C11       -0.6350   29.0150   58.0950 C.ar    0  <0>0       -0.0030
      8  C16       -1.8630   28.3500   58.0910 C.ar    0  <0>0       -0.0031
      9  C15       -1.9040   26.9820   58.2610 C.ar    0  <0>0       -0.0046
     10  C14       -0.7320   26.2680   58.4370 C.ar    0  <0>0       -0.0225
     11  C13        0.4890   26.9190   58.4420 C.ar    0  <0>0       -0.0046
     12  C12        0.5450   28.2860   58.2670 C.ar    0  <0>0       -0.0031
     13  C17       -0.7850   24.7740   58.6240 C.3     0  <0>0        0.0224
     14  C18       -2.2440   24.3240   58.7310 C.3     0  <0>0        0.0047
     15  C19       -0.1260   24.0860   57.4270 C.3     0  <0>0        0.0047
     16  C8        -2.0750   29.4430   53.7570 C.3     0  <0>0        0.2907
     17  O1        -0.8360   28.9920   53.2070 O.3     0  <0>0       -0.4662
     18  C7        -0.7760   27.6950   52.8040 C.ar    0  <0>0        0.1312
     19  C2        -0.0690   26.7660   53.5530 C.ar    0  <0>0        0.0118
     20  C1         0.6330   27.1940   54.8160 C.3     0  <0>0        0.0342
     21  C3        -0.0140   25.4480   53.1440 C.ar    0  <0>0       -0.0013
     22  C4        -0.6540   25.0560   51.9830 C.ar    0  <0>0       -0.0004
     23  C5        -1.3540   25.9810   51.2310 C.ar    0  <0>0       -0.0013
     24  C6        -1.4180   27.3000   51.6390 C.ar    0  <0>0        0.0118
     25  C20       -2.1820   28.3070   50.8190 C.3     0  <0>0        0.0342
@<TRIPOS>BOND
     1    25    24    1
     2    23    24   ar
     3    23    22   ar
     4    24    18   ar
     5    22    21   ar
     6    18    17    1
     7    18    19   ar
     8    21    19   ar
     9    17    16    1
    10    19    20    1
    11    16     1    1
    12     1     2    2
    13     1     3   am
    14     4     3    1
    15     3     5    1
    16     5     6    1
    17    15    13    1
    18     6     7    1
    19     8     7   ar
    20     8     9   ar
    21     7    12   ar
    22     9    10   ar
    23    12    11   ar
    24    10    11   ar
    25    10    13    1
    26    13    14    1
