@<TRIPOS>MOLECULE
ZINC12417011_replica-1.pdb
 30 34 0 0 0
SMALL
GASTEIGER

@<TRIPOS>ATOM
      1  C1         2.9400   34.0670   55.9900 C.3     0  <0>0        0.0215
      2  C2         4.3660   34.3110   55.4940 C.3     0  <0>0        0.1265
      3  C3         4.9570   35.5700   56.1140 C.2     0  <0>0        0.2401
      4  O1         4.6380   36.6730   55.7240 O.2     0  <0>0       -0.2736
      5  N1         5.8330   35.4140   57.1050 N.am    0  <0>0       -0.2415
      6  C4         6.1880   34.0630   57.5250 C.3     0  <0>0        0.1937
      7  S1         5.5340   33.0370   56.1500 S.3     0  <0>0       -0.1020
      8  C5         5.5750   33.6610   58.8300 C.ar    0  <0>0        0.0258
      9  C6         4.2840   33.6250   59.3080 C.ar    0  <0>0       -0.0002
     10  C7         4.0350   33.1900   60.5980 C.ar    0  <0>0       -0.0001
     11  C8         5.0840   32.7940   61.4060 C.ar    0  <0>0        0.0013
     12  C9         6.3800   32.8300   60.9330 C.ar    0  <0>0        0.0147
     13  C10        6.6400   33.2660   59.6370 C.ar    0  <0>0        0.0530
     14  N2         7.8460   33.3930   58.9410 N.am    0  <0>0       -0.2523
     15  C11        7.6630   33.8570   57.6880 C.2     0  <0>0        0.2599
     16  O2         8.5230   34.0670   56.8580 O.2     0  <0>0       -0.2715
     17  C19        6.4030   36.5270   57.7330 C.ar    0  <0>0        0.0552
     18  C24        7.3610   37.2840   57.0730 C.ar    0  <0>0        0.0149
     19  C23        7.9220   38.3810   57.6950 C.ar    0  <0>0        0.0013
     20  C22        7.5310   38.7270   58.9760 C.ar    0  <0>0        0.0001
     21  C21        6.5770   37.9750   59.6360 C.ar    0  <0>0        0.0013
     22  C20        6.0080   36.8790   59.0170 C.ar    0  <0>0        0.0149
     23  C12        9.1560   33.0580   59.5080 C.3     0  <0>0        0.1256
     24  C13        9.7090   34.2560   60.2350 C.ar    0  <0>0        0.0086
     25  C18       10.4830   34.0820   61.3680 C.ar    0  <0>0        0.0553
     26  C17       10.9940   35.1820   62.0320 C.ar    0  <0>0        0.0111
     27 Cl         10.8150   32.4810   61.9550 Cl      0  <0>0       -0.0825
     28  C16       10.7240   36.4560   61.5680 C.ar    0  <0>0        0.0008
     29  C15        9.9460   36.6300   60.4380 C.ar    0  <0>0       -0.0002
     30  C14        9.4390   35.5300   59.7720 C.ar    0  <0>0       -0.0018
@<TRIPOS>BOND
     1     2     1    1
     2     2     3    1
     3     2     7    1
     4     4     3    2
     5     3     5   am
     6     7     6    1
     7    16    15    2
     8    18    19   ar
     9    18    17   ar
    10     5     6    1
    11     5    17    1
    12     6    15    1
    13     6     8    1
    14    15    14   am
    15    19    20   ar
    16    17    22   ar
    17     8     9   ar
    18     8    13   ar
    19    14    23    1
    20    14    13    1
    21    20    21   ar
    22    22    21   ar
    23     9    10   ar
    24    23    24    1
    25    13    12   ar
    26    30    24   ar
    27    30    29   ar
    28    24    25   ar
    29    29    28   ar
    30    10    11   ar
    31    12    11   ar
    32    25    27    1
    33    25    26   ar
    34    28    26   ar
