@<TRIPOS>MOLECULE
ZINC23138004_replica-1.pdb
 28 30 0 0 0
SMALL
GASTEIGER

@<TRIPOS>ATOM
      1  C11        0.8160   31.1260   59.2240 C.2     0  <0>0        0.1265
      2  C12        0.8900   31.3410   60.5710 C.3     0  <0>0        0.1910
      3  C13        0.8860   32.6610   61.0510 C.1     0  <0>0        0.1980
      4  O2         0.9560   32.8880   62.2480 O.2     0  <0>0       -0.2130
      5  N2         0.8000   33.6750   60.1630 N.2     0  <0>0       -0.2640
      6  C14        0.7230   33.4000   58.8310 C.1     0  <0>0        0.1787
      7  N3         0.7320   32.1580   58.3880 N.2     0  <0>0       -0.3415
      8  C10        0.8310   29.7190   58.6850 C.3     0  <0>0        0.1414
      9  C9        -0.1910   29.5940   57.5840 C.2     0  <0>0        0.2295
     10  N1         0.2070   29.5600   56.2960 N.am    0  <0>0       -0.3019
     11  H10        1.2770   29.6250   56.0490 H       0  <0>0        0.1497
     12  O1        -1.3710   29.5230   57.8550 O.2     0  <0>0       -0.2746
     13  C2        -0.7860   29.4390   55.2260 C.3     0  <0>0        0.0941
     14  C1        -0.6890   30.6520   54.2990 C.3     0  <0>0        0.0262
     15  C3        -0.5210   28.1820   54.4370 C.ar    0  <0>0       -0.0045
     16  C8         0.1490   27.1250   55.0250 C.ar    0  <0>0       -0.0027
     17  C7         0.3910   25.9720   54.3010 C.ar    0  <0>0       -0.0003
     18  C6        -0.0380   25.8760   52.9910 C.ar    0  <0>0       -0.0000
     19  C5        -0.7070   26.9330   52.4030 C.ar    0  <0>0       -0.0003
     20  C4        -0.9530   28.0840   53.1280 C.ar    0  <0>0       -0.0027
     21  S1         0.6090   34.7290   57.6780 S.3     0  <0>0       -0.0127
     22  C15        1.6230   35.9660   58.5240 C.3     0  <0>0        0.1006
     23  C16        2.9950   36.0020   57.9010 C.ar    0  <0>0       -0.0103
     24  C21        3.1280   36.0640   56.5260 C.ar    0  <0>0       -0.0034
     25  C20        4.3860   36.0980   55.9550 C.ar    0  <0>0       -0.0003
     26  C19        5.5110   36.0700   56.7570 C.ar    0  <0>0       -0.0000
     27  C18        5.3780   36.0080   58.1310 C.ar    0  <0>0       -0.0003
     28  C17        4.1200   35.9800   58.7030 C.ar    0  <0>0       -0.0034
@<TRIPOS>BOND
     1    19    18   ar
     2    19    20   ar
     3    18    17   ar
     4    20    15   ar
     5    14    13    1
     6    17    16   ar
     7    15    16   ar
     8    15    13    1
     9    13    10    1
    10    25    24   ar
    11    25    26   ar
    12    11    10    1
    13    10     9   am
    14    24    23   ar
    15    26    27   ar
    16     9    12    2
    17     9     8    1
    18    21    22    1
    19    21     6    1
    20    23    22    1
    21    23    28   ar
    22    27    28   ar
    23     7     6    2
    24     7     1    2
    25     8     1    1
    26     6     5    2
    27     1     2    1
    28     5     3    2
    29     2     3    1
    30     3     4    2
