@<TRIPOS>MOLECULE
ZINC57797971_replica-1.pdb
 22 24 0 0 0
SMALL
GASTEIGER

@<TRIPOS>ATOM
      1  C11       11.1500   34.5000   61.3760 C.2     0  <0>0        0.1801
      2  N1        12.3780   34.8240   61.8860 N.pl3   0  <0>0       -0.3007
      3  H1        12.8540   35.6580   61.7550 H       0  <0>0        0.1498
      4  C12       12.8130   33.7380   62.6230 C.3     0  <0>0        0.1491
      5  C13       13.9590   33.4750   63.3610 C.2     0  <0>0        0.0322
      6  C14       14.1000   32.2600   63.9990 C.2     0  <0>0        0.1652
      7  C15       13.1000   31.2960   63.9090 C.2     0  <0>0        0.1694
      8  C16       11.9580   31.5410   63.1820 C.2     0  <0>0        0.0615
      9  C17       11.8000   32.7690   62.5280 C.2     0  <0>0        0.1349
     10  N2        10.8130   33.2940   61.7620 N.2     0  <0>0       -0.3895
     11  F1        13.2520   30.1110   64.5400 F       0  <0>0       -0.2017
     12  F2        15.2170   32.0040   64.7160 F       0  <0>0       -0.2021
     13  C8        10.3220   35.3820   60.5230 C.ar    0  <0>0        0.0437
     14  C7         9.9810   36.6620   60.9610 C.ar    0  <0>0        0.0035
     15  C6         9.2100   37.4790   60.1610 C.ar    0  <0>0       -0.0042
     16  C5         8.7750   37.0320   58.9270 C.ar    0  <0>0       -0.0228
     17  C10        9.1060   35.7620   58.4890 C.ar    0  <0>0       -0.0042
     18  C9         9.8810   34.9370   59.2770 C.ar    0  <0>0        0.0035
     19  C2         7.9330   37.9300   58.0570 C.3     0  <0>0        0.0189
     20  C1         8.8320   38.6630   57.0600 C.3     0  <0>0        0.0044
     21  C3         7.2020   38.9500   58.9330 C.3     0  <0>0        0.0044
     22  C4         6.9080   37.0860   57.2960 C.3     0  <0>0        0.0044
@<TRIPOS>BOND
     1    20    19    1
     2    22    19    1
     3    19    16    1
     4    19    21    1
     5    17    16   ar
     6    17    18   ar
     7    16    15   ar
     8    18    13   ar
     9    15    14   ar
    10    13    14   ar
    11    13     1    1
    12     1    10    2
    13     1     2    1
    14     3     2    1
    15    10     9    2
    16     2     4    1
    17     9     4    1
    18     9     8    1
    19     4     5    1
    20     8     7    2
    21     5     6    2
    22     7     6    1
    23     7    11    1
    24     6    12    1
