@<TRIPOS>MOLECULE
ZINC09687489_replica-1.pdb
 25 28 0 0 0
SMALL
GASTEIGER

@<TRIPOS>ATOM
      1  C1        -3.0940   30.4120   52.2940 C.3     0  <0>0        0.1537
      2  N1        -2.0130   30.1840   53.2570 N.ar    0  <0>0       -0.2490
      3  C2        -1.2440   29.0870   53.3120 C.ar    0  <0>0        0.0757
      4  C3        -0.3250   29.2700   54.3210 C.ar    0  <0>0        0.0193
      5  C4        -0.6360   30.5180   54.8740 C.ar    0  <0>0        0.1517
      6  N2        -1.6530   31.0100   54.1830 N.ar    0  <0>0       -0.1649
      7  C12        0.7640   28.2930   54.6570 C.3     0  <0>0        0.0348
      8  C13        0.3280   26.8600   54.3290 C.3     0  <0>0        0.0378
      9  C14       -0.4370   26.8100   53.0510 C.ar    0  <0>0        0.0090
     10  C15       -1.2200   27.8210   52.5270 C.ar    0  <0>0        0.0195
     11  C16       -1.8680   27.5520   51.3220 C.ar    0  <0>0        0.0086
     12  C17       -1.7010   26.3480   50.7290 C.ar    0  <0>0        0.0352
     13  S1        -0.5980   25.5120   51.8590 S.2     0  <0>0       -0.0907
     14  C5         0.0460   31.1670   56.0120 C.2     0  <0>0        0.2687
     15  O1         0.4750   30.4930   56.9280 O.2     0  <0>0       -0.2681
     16  N3         0.1930   32.5070   56.0350 N.am    0  <0>0       -0.2791
     17  H4        -0.2140   33.0520   55.3430 H       0  <0>0        0.1552
     18  C6         0.9340   33.1120   57.0550 C.ar    0  <0>0        0.0516
     19  C11        0.3180   33.4600   58.2510 C.ar    0  <0>0        0.0283
     20  C10        1.0530   34.0580   59.2570 C.ar    0  <0>0        0.0863
     21  C9         2.4030   34.3100   59.0740 C.ar    0  <0>0        0.1507
     22 Cl          0.2830   34.4940   60.7510 Cl      0  <0>0       -0.0799
     23  C8         3.0180   33.9620   57.8840 C.ar    0  <0>0        0.0318
     24  F1         3.1200   34.8930   60.0600 F       0  <0>0       -0.2033
     25  C7         2.2880   33.3660   56.8750 C.ar    0  <0>0        0.0170
@<TRIPOS>BOND
     1    12    11   ar
     2    12    13   ar
     3    11    10   ar
     4    13     9   ar
     5     1     2    1
     6    10     9   ar
     7    10     3    1
     8     9     8    1
     9     2     3   ar
    10     2     6   ar
    11     3     4   ar
    12     6     5   ar
    13     4     7    1
    14     4     5   ar
    15     8     7    1
    16     5    14    1
    17    17    16    1
    18    14    16   am
    19    14    15    2
    20    16    18    1
    21    25    18   ar
    22    25    23   ar
    23    18    19   ar
    24    23    21   ar
    25    19    20   ar
    26    21    20   ar
    27    21    24    1
    28    20    22    1
