@<TRIPOS>MOLECULE
ZINC37136829_replica-1.pdb
 22 23 0 0 0
SMALL
GASTEIGER

@<TRIPOS>ATOM
      1  C9         8.8800   36.1440   58.5520 C.2     0  <0>0        0.0290
      2  C10        8.8020   37.2810   59.3530 C.2     0  <0>0        0.0135
      3  C11        9.5020   37.3490   60.5380 C.2     0  <0>0        0.0408
      4  C12       10.2900   36.2800   60.9400 C.2     0  <0>0        0.1735
      5  C13       10.3730   35.1320   60.1390 C.2     0  <0>0        0.1521
      6  C14        9.6580   35.0690   58.9420 C.3     0  <0>0        0.1030
      7  N2        11.2070   34.2700   60.7820 N.2     0  <0>0       -0.3720
      8  C15       11.6120   34.8240   61.8850 C.2     0  <0>0        0.2561
      9  O1        11.0750   36.0470   62.0160 O.2     0  <0>0       -0.4281
     10  N1         8.1650   36.0880   57.3510 N.pl3   0  <0>0       -0.3369
     11  H18        8.5730   35.6990   56.5610 H       0  <0>0        0.1465
     12  C6         6.8000   36.6150   57.2840 C.3     0  <0>0        0.0688
     13  C5         5.8030   35.4890   57.5600 C.3     0  <0>0        0.0195
     14  C3         4.7550   35.9700   58.5650 C.3     0  <0>0        0.0016
     15  C4         3.3640   35.8790   57.9340 C.3     0  <0>0        0.0001
     16  C2         4.8050   35.0900   59.8160 C.3     0  <0>0        0.0001
     17  C1         5.8860   35.6140   60.7650 C.3     0  <0>0        0.0000
     18  C7         6.5440   37.1930   55.8910 C.3     0  <0>0        0.0195
     19  C8         7.5260   36.5760   54.8940 C.3     0  <0>0        0.0017
     20  C16       12.5480   34.1850   62.8770 C.3     0  <0>0        0.0896
     21  C17       12.0590   32.7730   63.2050 C.3     0  <0>0        0.0109
     22  C18       13.9540   34.1110   62.2770 C.3     0  <0>0        0.0109
@<TRIPOS>BOND
     1    19    18    1
     2    18    12    1
     3    11    10    1
     4    12    10    1
     5    12    13    1
     6    10     1    1
     7    13    14    1
     8    15    14    1
     9     1     6    1
    10     1     2    2
    11    14    16    1
    12     6     5    1
    13     2     3    1
    14    16    17    1
    15     5     7    2
    16     5     4    1
    17     3     4    2
    18     7     8    2
    19     4     9    1
    20     8     9    1
    21     8    20    1
    22    22    20    1
    23    20    21    1
