@<TRIPOS>MOLECULE
ZINC27528921_replica-1.pdb
 32 35 0 0 0
SMALL
GASTEIGER

@<TRIPOS>ATOM
      1  C13        9.0010   36.3530   58.4460 C.ar    0  <0>0       -0.0204
      2  C14        9.6470   35.1410   58.6070 C.ar    0  <0>0       -0.0029
      3  C15       10.3150   34.8630   59.7830 C.ar    0  <0>0        0.0140
      4  C16       10.3290   35.7990   60.8100 C.ar    0  <0>0        0.0448
      5  C17        9.6740   37.0140   60.6480 C.ar    0  <0>0        0.0140
      6  C18        9.0130   37.2870   59.4660 C.ar    0  <0>0       -0.0029
      7  C12        8.2780   36.6560   57.1600 C.3     0  <0>0        0.0475
      8  C11        6.8290   37.0400   57.4660 C.3     0  <0>0        0.0918
      9  N1         5.9470   35.9130   57.1520 N.pl3   0  <0>0       -0.3324
     10  H8         5.8700   35.5470   56.1170 H       0  <0>0        0.1468
     11  C10        5.2090   35.3030   58.1630 C.ar    0  <0>0        0.0446
     12  C4         3.7980   35.3430   58.1380 C.ar    0  <0>0        0.0131
     13  C3         3.1060   35.9910   57.1030 C.ar    0  <0>0        0.0012
     14  C5         3.0680   34.7170   59.1770 C.ar    0  <0>0        0.0012
     15  C2         1.7440   36.0100   57.1110 C.ar    0  <0>0        0.0000
     16  C1         1.0250   35.3940   58.1320 C.ar    0  <0>0        0.0000
     17  C6         1.6630   34.7570   59.1520 C.ar    0  <0>0        0.0000
     18  C7         3.7580   34.0690   60.2150 C.ar    0  <0>0        0.0001
     19  C8         5.1210   34.0460   60.2140 C.ar    0  <0>0        0.0013
     20  C9         5.8490   34.6620   59.2020 C.ar    0  <0>0        0.0143
     21  N2        10.9980   35.5190   62.0030 N.pl3   0  <0>0       -0.3291
     22  H17       10.4850   35.6540   62.9670 H       0  <0>0        0.1471
     23  C19       12.3840   35.0450   61.9720 C.3     0  <0>0        0.1143
     24  C20       12.4580   33.6670   62.5750 C.ar    0  <0>0       -0.0025
     25  C25       13.6730   33.1610   62.9990 C.ar    0  <0>0       -0.0009
     26  C24       13.7410   31.8960   63.5520 C.ar    0  <0>0        0.0238
     27  C23       12.5930   31.1370   63.6820 C.ar    0  <0>0        0.1429
     28  C22       11.3780   31.6420   63.2590 C.ar    0  <0>0        0.0238
     29  C21       11.3100   32.9090   62.7100 C.ar    0  <0>0       -0.0009
     30  N3        12.6660   29.7820   64.2740 N.pl3   0  <0>0        0.0577
     31  O1        12.7970   29.6490   65.4770 O.2     0  <0>0       -0.1261
     32  O2        12.5930   28.7990   63.5570 O.2     0  <0>0       -0.1261
@<TRIPOS>BOND
     1    10     9    1
     2    13    15   ar
     3    13    12   ar
     4    15    16   ar
     5     9     8    1
     6     9    11    1
     7     7     8    1
     8     7     1    1
     9    16    17   ar
    10    12    11   ar
    11    12    14   ar
    12    11    20   ar
    13     1     2   ar
    14     1     6   ar
    15     2     3   ar
    16    17    14   ar
    17    14    18   ar
    18    20    19   ar
    19     6     5   ar
    20     3     4   ar
    21    19    18   ar
    22     5     4   ar
    23     4    21    1
    24    23    21    1
    25    23    24    1
    26    21    22    1
    27    24    29   ar
    28    24    25   ar
    29    29    28   ar
    30    25    26   ar
    31    28    27   ar
    32    26    27   ar
    33    32    30    2
    34    27    30    1
    35    30    31    2
