@<TRIPOS>MOLECULE
ZINC12599848_replica-1.pdb
 25 26 0 0 0
SMALL
GASTEIGER

@<TRIPOS>ATOM
      1  C11        4.4970   35.0910   55.5030 C.2     0  <0>0        0.3620
      2  O3         4.0940   34.6260   54.4620 O.2     0  <0>0       -0.2459
      3  C10        5.7490   35.9300   55.5180 C.3     0  <0>0        0.3170
      4  O2         6.8040   35.2130   56.2110 O.3     0  <0>0       -0.4331
      5  C9         7.9950   35.8340   56.3210 C.2     0  <0>0        0.3414
      6  O1         8.5630   36.2380   55.3270 O.2     0  <0>0       -0.2449
      7  C5         8.6090   36.0220   57.6510 C.ar    0  <0>0        0.0717
      8  C4         9.2490   34.9560   58.2870 C.ar    0  <0>0        0.0058
      9  C3         9.8190   35.1390   59.5290 C.ar    0  <0>0       -0.0041
     10  C2         9.7600   36.3770   60.1450 C.ar    0  <0>0       -0.0222
     11  C1        10.3860   36.5690   61.5030 C.3     0  <0>0        0.0310
     12  C7         9.1280   37.4380   59.5220 C.ar    0  <0>0       -0.0083
     13  C6         8.5510   37.2680   58.2790 C.ar    0  <0>0       -0.0159
     14  C8         7.8630   38.4240   57.6020 C.3     0  <0>0        0.0312
     15  O4         3.8300   34.8590   56.6450 O.3     0  <0>0       -0.4497
     16  C12        3.2500   36.0100   57.3140 C.3     0  <0>0        0.1688
     17  C17        3.5560   35.9380   58.8110 C.3     0  <0>0        0.0402
     18  C16        2.9580   34.6530   59.3920 C.3     0  <0>0        0.0036
     19  C15        1.4430   34.6550   59.1790 C.3     0  <0>0        0.0002
     20  C14        1.1370   34.7280   57.6820 C.3     0  <0>0        0.0036
     21  C13        1.7350   36.0120   57.1020 C.3     0  <0>0        0.0436
     22  C21        1.7500   33.5160   56.9770 C.3     0  <0>0        0.0001
     23  C18        5.0710   35.9360   59.0230 C.3     0  <0>0        0.0035
     24  C19        5.4460   37.0290   60.0260 C.3     0  <0>0        0.0001
     25  C20        5.5080   34.5740   59.5650 C.3     0  <0>0        0.0001
@<TRIPOS>BOND
     1     2     1    2
     2     6     5    2
     3     1     3    1
     4     1    15    1
     5     3     4    1
     6     4     5    1
     7     5     7    1
     8    15    16    1
     9    22    20    1
    10    21    16    1
    11    21    20    1
    12    16    17    1
    13    14    13    1
    14     7    13   ar
    15     7     8   ar
    16    20    19    1
    17    13    12   ar
    18     8     9   ar
    19    17    23    1
    20    17    18    1
    21    23    25    1
    22    23    24    1
    23    19    18    1
    24    12    10   ar
    25     9    10   ar
    26    10    11    1
