@<TRIPOS>MOLECULE
ZINC35737509_replica-1.pdb
 19 20 0 0 0
SMALL
GASTEIGER

@<TRIPOS>ATOM
      1  C4        -0.8680   29.3960   54.4870 C.3     0  <0>0        0.0919
      2  C3        -1.6190   30.4630   53.6910 C.3     0  <0>0        0.0241
      3  C2        -3.0600   30.5570   54.1950 C.3     0  <0>0        0.0020
      4  C1        -3.0590   30.7190   55.7160 C.3     0  <0>0        0.0001
      5  C5        -0.7460   28.1420   53.6590 C.ar    0  <0>0       -0.0045
      6  C10       -1.3350   28.0800   52.4100 C.ar    0  <0>0       -0.0018
      7  C9        -1.2180   26.9320   51.6470 C.ar    0  <0>0        0.0111
      8  C8        -0.5220   25.8430   52.1400 C.ar    0  <0>0        0.0577
      9  C7         0.0630   25.9050   53.3930 C.ar    0  <0>0        0.0111
     10 Cl         -0.3800   24.3990   51.1860 Cl      0  <0>0       -0.0822
     11  C6        -0.0490   27.0540   54.1520 C.ar    0  <0>0       -0.0018
     12  N1         0.4700   29.8890   54.8260 N.pl3   0  <0>0       -0.3281
     13  H13        1.2290   29.6480   54.2730 H       0  <0>0        0.1471
     14  C11        0.6520   30.7120   55.9540 C.ar    0  <0>0        0.0850
     15  C13        0.5200   30.3310   57.2500 C.ar    0  <0>0        0.1110
     16  N3         0.7820   31.4180   58.0240 N.ar    0  <0>0       -0.2461
     17  N2         1.0730   32.4920   57.1740 N.ar    0  <0>0       -0.1663
     18  C14        0.7590   31.4580   59.4880 C.3     0  <0>0        0.1538
     19  C12        0.9960   32.0720   55.9370 C.ar    0  <0>0        0.1359
@<TRIPOS>BOND
     1    10     8    1
     2     7     8   ar
     3     7     6   ar
     4     8     9   ar
     5     6     5   ar
     6     9    11   ar
     7     5    11   ar
     8     5     1    1
     9     2     3    1
    10     2     1    1
    11     3     4    1
    12    13    12    1
    13     1    12    1
    14    12    14    1
    15    19    14   ar
    16    19    17   ar
    17    14    15   ar
    18    17    16   ar
    19    15    16   ar
    20    16    18    1
