@<TRIPOS>MOLECULE
ZINC39569791_replica-1.pdb
 27 28 0 0 0
SMALL
GASTEIGER

@<TRIPOS>ATOM
      1  C9        -0.4380   26.8580   53.3580 C.ar    0  <0>0        0.1452
      2  C10       -0.4090   25.8760   52.3780 C.ar    0  <0>0        0.0371
      3  C11       -1.0700   26.0720   51.1820 C.ar    0  <0>0        0.0031
      4  C12       -1.7670   27.2470   50.9500 C.ar    0  <0>0        0.0004
      5  C13       -1.8070   28.2330   51.9120 C.ar    0  <0>0        0.0095
      6  C14       -1.1470   28.0460   53.1290 C.ar    0  <0>0        0.1095
      7  C15       -1.1900   29.0940   54.1650 C.2     0  <0>0        0.3447
      8  O2        -2.0910   29.1050   54.9810 O.2     0  <0>0       -0.2448
      9  O3        -0.2310   30.0400   54.2070 O.3     0  <0>0       -0.4352
     10  C16       -0.6380   31.3610   54.5660 C.3     0  <0>0        0.2927
     11  C17        0.1570   31.8260   55.7580 C.2     0  <0>0        0.2670
     12  O4         0.8140   31.0310   56.3960 O.2     0  <0>0       -0.2711
     13  N1         0.1380   33.1250   56.1170 N.am    0  <0>0       -0.3044
     14  H16       -0.3890   33.7610   55.6070 H       0  <0>0        0.1494
     15  C18        0.9110   33.5770   57.2760 C.3     0  <0>0        0.0570
     16  C19        0.6730   35.0720   57.4960 C.3     0  <0>0        0.0196
     17  C20        0.4700   32.8010   58.5180 C.3     0  <0>0        0.0196
     18  C21        2.4000   33.3310   57.0220 C.3     0  <0>0        0.0196
     19  O1         0.2100   26.6660   54.5330 O.3     0  <0>0       -0.4704
     20  C8         0.7250   25.3570   54.7860 C.3     0  <0>0        0.2317
     21  C7         0.2760   24.8950   56.1480 C.ar    0  <0>0        0.0172
     22  C2         0.2130   23.5440   56.4320 C.ar    0  <0>0       -0.0223
     23  C1         0.5930   22.5330   55.3810 C.3     0  <0>0        0.0308
     24  C3        -0.1930   23.1200   57.6840 C.ar    0  <0>0       -0.0045
     25  C4        -0.5420   24.0460   58.6490 C.ar    0  <0>0       -0.0003
     26  C5        -0.4840   25.3970   58.3610 C.ar    0  <0>0       -0.0002
     27  C6        -0.0770   25.8220   57.1100 C.ar    0  <0>0       -0.0010
@<TRIPOS>BOND
     1     4     3   ar
     2     4     5   ar
     3     3     2   ar
     4     5     6   ar
     5     2     1   ar
     6     6     1   ar
     7     6     7    1
     8     1    19    1
     9     7     9    1
    10     7     8    2
    11     9    10    1
    12    19    20    1
    13    10    11    1
    14    20    21    1
    15    23    22    1
    16    14    13    1
    17    11    13   am
    18    11    12    2
    19    13    15    1
    20    21    22   ar
    21    21    27   ar
    22    22    24   ar
    23    18    15    1
    24    27    26   ar
    25    15    16    1
    26    15    17    1
    27    24    25   ar
    28    26    25   ar
