@<TRIPOS>MOLECULE
ZINC63579831_replica-1.pdb
 24 27 0 0 0
SMALL
GASTEIGER

@<TRIPOS>ATOM
      1  C8        -1.6130   30.3120   55.3200 C.2     0  <0>0        0.2073
      2  N1        -1.7380   29.5690   56.4500 N.am    0  <0>0       -0.2594
      3  H1        -2.3070   28.7830   56.4430 H       0  <0>0        0.1570
      4  C9        -1.0880   29.9000   57.5820 C.2     0  <0>0        0.2384
      5  O2        -1.2080   29.2240   58.5880 O.2     0  <0>0       -0.2739
      6  C10       -0.2500   31.0640   57.5800 C.3     0  <0>0        0.1538
      7  C11        0.5420   31.6050   58.6980 C.2     0  <0>0       -0.0250
      8  C12        1.2550   32.7140   58.4410 C.2     0  <0>0        0.0132
      9  S1         0.9160   33.1050   56.7380 S.3     0  <0>0       -0.0631
     10  C13       -0.1840   31.7650   56.3710 C.2     0  <0>0        0.1515
     11  N2        -0.8530   31.3740   55.2890 N.2     0  <0>0       -0.3846
     12  C14        2.1710   33.5090   59.3320 C.3     0  <0>0        0.0897
     13  S2         1.8620   33.0170   61.0560 S.3     0  <0>0       -0.1346
     14  C15        1.7090   31.2090   60.9040 C.3     0  <0>0        0.0623
     15  C16        0.4920   30.8930   60.0440 C.3     0  <0>0        0.0348
     16  C7        -2.3620   29.9000   54.0790 C.3     0  <0>0        0.2793
     17  O1        -1.4330   29.6640   53.0200 O.3     0  <0>0       -0.4663
     18  C6        -1.2030   28.3690   52.6770 C.ar    0  <0>0        0.1393
     19  C1        -0.4290   27.5610   53.4960 C.ar    0  <0>0        0.0378
     20  C2        -0.1970   26.2440   53.1460 C.ar    0  <0>0        0.0145
     21  C3        -0.7360   25.7320   51.9800 C.ar    0  <0>0        0.0579
     22  C4        -1.5100   26.5370   51.1610 C.ar    0  <0>0        0.0145
     23 Cl         -0.4430   24.0790   51.5410 Cl      0  <0>0       -0.0822
     24  C5        -1.7430   27.8540   51.5070 C.ar    0  <0>0        0.0378
@<TRIPOS>BOND
     1    22    24   ar
     2    22    21   ar
     3    24    18   ar
     4    23    21    1
     5    21    20   ar
     6    18    17    1
     7    18    19   ar
     8    17    16    1
     9    20    19   ar
    10    16     1    1
    11    11     1    2
    12    11    10    2
    13     1     2    1
    14    10     9    1
    15    10     6    1
    16     3     2    1
    17     2     4   am
    18     9     8    1
    19     6     4    1
    20     6     7    1
    21     4     5    2
    22     8     7    2
    23     8    12    1
    24     7    15    1
    25    12    13    1
    26    15    14    1
    27    14    13    1
