@<TRIPOS>MOLECULE
ZINC41623362_replica-1.pdb
 20 21 0 0 0
SMALL
GASTEIGER

@<TRIPOS>ATOM
      1  N1        11.9430   35.3440   62.5920 N.4     0  <0>0        0.3854
      2  H14       11.5180   35.9910   63.2390 H       0  <0>0       -0.0844
      3  H27       12.7600   35.7680   62.1790 H       0  <0>0       -0.0844
      4  C7        12.3330   34.1210   63.3060 C.3     0  <0>0       -0.0618
      5  C2        13.8590   34.0260   63.3580 C.3     0  <0>0       -0.0194
      6  C1        14.4170   33.9840   61.9340 C.3     0  <0>0       -0.0021
      7  C3        14.2650   32.7520   64.1020 C.3     0  <0>0       -0.0020
      8  C4        13.7030   31.5320   63.3690 C.3     0  <0>0       -0.0001
      9  C5        12.1770   31.6280   63.3180 C.3     0  <0>0       -0.0021
     10  C6        11.7700   32.9010   62.5750 C.3     0  <0>0       -0.0214
     11  C8        10.9800   35.0060   61.5340 C.3     0  <0>0       -0.0736
     12  C9        10.3560   36.2910   60.9840 C.3     0  <0>0        0.0423
     13  C10        9.5910   35.9780   59.7250 C.2     0  <0>0        0.1317
     14  S1         9.2440   34.4710   59.0590 S.3     0  <0>0       -0.0796
     15  C12        8.3350   35.0380   57.6300 C.3     0  <0>0        0.1184
     16  C11        8.3970   36.3820   57.8110 C.2     0  <0>0        0.0977
     17  N2         9.0400   36.8120   58.8780 N.2     0  <0>0       -0.4079
     18  C13        7.7610   37.3390   56.8360 C.3     0  <0>0        0.0491
     19  C14        8.5140   38.6710   56.8630 C.3     0  <0>0        0.0071
     20  C15        7.8240   36.7460   55.4260 C.3     0  <0>0        0.0071
@<TRIPOS>BOND
     1    20    18    1
     2    18    19    1
     3    18    16    1
     4    15    16    1
     5    15    14    1
     6    16    17    2
     7    17    13    2
     8    14    13    1
     9    13    12    1
    10    12    11    1
    11    11     1    1
    12     6     5    1
    13     3     1    1
    14    10     4    1
    15    10     9    1
    16     1     2    1
    17     1     4    1
    18     4     5    1
    19     9     8    1
    20     5     7    1
    21     8     7    1
