@<TRIPOS>MOLECULE
ZINC04321525_replica-1.pdb
 25 26 0 0 0
SMALL
GASTEIGER

@<TRIPOS>ATOM
      1  C9        12.2300   33.4740   62.7880 C.ar    0  <0>0        0.0874
      2  C10       11.0740   32.7030   62.7740 C.ar    0  <0>0        0.0177
      3  C11       11.1100   31.4000   63.2280 C.ar    0  <0>0        0.0053
      4  C12       12.2950   30.8610   63.6980 C.ar    0  <0>0        0.0732
      5  C13       13.4460   31.6260   63.7140 C.ar    0  <0>0        0.0292
      6  C14       13.4200   32.9280   63.2550 C.ar    0  <0>0        0.1575
      7  N2        12.1980   34.7920   62.3300 N.pl3   0  <0>0       -0.2343
      8  H9        12.7000   35.4800   62.7950 H       0  <0>0        0.1745
      9  N1        11.4420   35.1210   61.1970 N.2     0  <0>0       -0.1797
     10  C8        10.5520   36.0640   61.2630 C.2     0  <0>0        0.1175
     11  C5         9.7560   36.4100   60.0710 C.ar    0  <0>0        0.0209
     12  C4         9.1330   37.6580   59.9820 C.ar    0  <0>0        0.0047
     13  C3         8.3900   37.9760   58.8660 C.ar    0  <0>0        0.0370
     14  C2         8.2610   37.0620   57.8300 C.ar    0  <0>0        0.1387
     15  C7         8.8750   35.8180   57.9150 C.ar    0  <0>0        0.0370
     16  C6         9.6250   35.4920   59.0250 C.ar    0  <0>0        0.0047
     17  O1         7.5290   37.3800   56.7310 O.3     0  <0>0       -0.4714
     18  C1         7.8110   36.6560   55.5310 C.3     0  <0>0        0.2525
     19  N3        14.6560   33.7440   63.2670 N.pl3   0  <0>0        0.0589
     20  O2        15.2500   33.9270   64.3040 O.2     0  <0>0       -0.1261
     21  O3        15.0720   34.2260   62.2390 O.2     0  <0>0       -0.1261
     22  C15       12.3290   29.4390   64.1940 C.3     0  <0>0        0.4186
     23  F1        13.0580   28.6500   63.2970 F       0  <0>0       -0.1659
     24  F2        12.9390   29.3990   65.4520 F       0  <0>0       -0.1659
     25  F3        11.0230   28.9480   64.2930 F       0  <0>0       -0.1659
@<TRIPOS>BOND
     1    18    17    1
     2    17    14    1
     3    14    15   ar
     4    14    13   ar
     5    15    16   ar
     6    13    12   ar
     7    16    11   ar
     8    12    11   ar
     9    11    10    1
    10     9    10    2
    11     9     7    1
    12    21    19    2
    13     7     1    1
    14     7     8    1
    15     2     1   ar
    16     2     3   ar
    17     1     6   ar
    18     3     4   ar
    19     6    19    1
    20     6     5   ar
    21    19    20    2
    22    23    22    1
    23     4     5   ar
    24     4    22    1
    25    22    25    1
    26    22    24    1
