@<TRIPOS>MOLECULE
ZINC48022670_replica-1.pdb
 22 24 0 0 0
SMALL
GASTEIGER

@<TRIPOS>ATOM
      1  C1         3.3540   35.2880   57.6330 C.3     0  <0>0        0.0021
      2  C2         4.2200   36.1040   56.6710 C.3     0  <0>0        0.0249
      3  C3         3.8300   35.7730   55.2280 C.3     0  <0>0        0.0021
      4  C4         4.0710   34.2840   54.9660 C.3     0  <0>0        0.0001
      5  C5         5.5520   33.9600   55.1730 C.3     0  <0>0        0.0021
      6  C6         5.9480   34.2860   56.6160 C.3     0  <0>0        0.0249
      7  C7         5.6890   35.7620   56.8940 C.3     0  <0>0        0.1272
      8  C8         6.1050   36.1140   58.3030 C.2     0  <0>0        0.2486
      9  O1         5.6610   35.6590   59.3350 O.2     0  <0>0       -0.2727
     10  N1         7.0770   37.0410   58.1710 N.am    0  <0>0       -0.2082
     11  C9         7.3250   37.3160   56.8850 C.2     0  <0>0        0.3103
     12  O2         8.1580   38.1180   56.5130 O.2     0  <0>0       -0.2522
     13  N2         6.5460   36.6020   56.0480 N.am    0  <0>0       -0.2837
     14  C15        7.4340   33.9810   56.8180 C.3     0  <0>0        0.0021
     15  H12        6.5510   36.6360   55.0780 H       0  <0>0        0.1513
     16  C10        7.7740   37.6690   59.2950 C.3     0  <0>0        0.1355
     17  C11        8.8590   36.7490   59.7910 C.ar    0  <0>0        0.0282
     18  S1         9.6690   36.7190   61.3820 S.2     0  <0>0       -0.0828
     19  C14       10.7700   35.3480   61.0790 C.ar    0  <0>0        0.0635
     20  C13       10.4580   35.0140   59.8020 C.ar    0  <0>0        0.0135
     21 Br         12.0470   34.5670   62.2360 Br      0  <0>0       -0.0419
     22  C12        9.4780   35.7320   59.1420 C.ar    0  <0>0        0.0049
@<TRIPOS>BOND
     1     4     5    1
     2     4     3    1
     3    15    13    1
     4     5     6    1
     5     3     2    1
     6    13    11   am
     7    13     7    1
     8    12    11    2
     9     6    14    1
    10     6     7    1
    11     2     7    1
    12     2     1    1
    13    11    10   am
    14     7     8    1
    15    10     8   am
    16    10    16    1
    17     8     9    2
    18    22    17   ar
    19    22    20   ar
    20    16    17    1
    21    17    18   ar
    22    20    19   ar
    23    19    18   ar
    24    19    21    1
