@<TRIPOS>MOLECULE
ZINC35238111_replica-1.pdb
 20 21 0 0 0
SMALL
GASTEIGER

@<TRIPOS>ATOM
      1  C6         9.3530   35.1070   58.5760 C.ar    0  <0>0        0.0622
      2  C7        10.1210   34.7880   59.6890 C.ar    0  <0>0        0.0156
      3  C8        10.3300   35.7320   60.6740 C.ar    0  <0>0        0.0013
      4  C9         9.7760   36.9930   60.5550 C.ar    0  <0>0        0.0014
      5  C10        9.0110   37.3130   59.4480 C.ar    0  <0>0        0.0199
      6  C11        8.8020   36.3760   58.4560 C.ar    0  <0>0        0.1272
      7  N1         9.1390   34.1540   57.5770 N.pl3   0  <0>0       -0.3330
      8  H10        9.7050   34.1400   56.7900 H       0  <0>0        0.1468
      9  C2         8.0580   33.1750   57.7190 C.3     0  <0>0        0.0691
     10  C1         7.4840   32.8450   56.3390 C.3     0  <0>0        0.0212
     11  C3         8.6070   31.8990   58.3600 C.3     0  <0>0        0.0179
     12  C5         8.0850   31.5250   59.7480 C.3     0  <0>0        0.0017
     13  C4         7.6450   30.7200   58.5230 C.3     0  <0>0        0.0017
     14  S1         7.8330   36.7880   57.0430 S.O2    0  <0>0        0.0932
     15  O1         8.5730   36.2880   55.9380 O.2     0  <0>0       -0.1611
     16  O2         6.5360   36.2850   57.3340 O.2     0  <0>0       -0.1611
     17  C12        7.8070   38.6010   57.0090 C.3     0  <0>0        0.5262
     18  F1         9.1150   39.0840   56.8870 F       0  <0>0       -0.1500
     19  F2         7.0460   39.0370   55.9180 F       0  <0>0       -0.1500
     20  F3         7.2410   39.0830   58.1940 F       0  <0>0       -0.1500
@<TRIPOS>BOND
     1    19    17    1
     2    15    14    2
     3    10     9    1
     4     8     7    1
     5    18    17    1
     6    17    14    1
     7    17    20    1
     8    14    16    2
     9    14     6    1
    10     7     9    1
    11     7     1    1
    12     9    11    1
    13    11    13    1
    14    11    12    1
    15     6     1   ar
    16     6     5   ar
    17    13    12    1
    18     1     2   ar
    19     5     4   ar
    20     2     3   ar
    21     4     3   ar
