@<TRIPOS>MOLECULE
ZINC50831262_replica-1.pdb
 21 22 0 0 0
SMALL
GASTEIGER

@<TRIPOS>ATOM
      1  C6         7.7170   34.0490   57.1160 C.3     0  <0>0        0.2503
      2  C5         6.4060   34.2030   56.3890 C.2     0  <0>0        0.1262
      3  C4         5.3670   34.9120   56.9190 C.3     0  <0>0        0.1661
      4  S1         4.1930   34.7550   55.7260 S.3     0  <0>0        0.0163
      5  N3         5.0590   33.8270   54.6320 N.pl3   0  <0>0       -0.0825
      6  N2         6.2000   33.6620   55.2090 N.2     0  <0>0       -0.1550
      7  N1         5.2950   35.5860   58.1360 N.3     0  <0>0       -0.2841
      8  H8         5.9890   36.2180   58.3810 H       0  <0>0        0.1244
      9  C3         4.1710   35.3420   59.0440 C.3     0  <0>0        0.0695
     10  C2         4.6610   34.5480   60.2570 C.3     0  <0>0        0.0171
     11  C1         6.0990   34.9530   60.5850 C.3     0  <0>0        0.0015
     12  O1         8.3860   35.3110   57.1650 O.3     0  <0>0       -0.4695
     13  C7         8.9740   35.6530   58.3420 C.ar    0  <0>0        0.1351
     14  C12        8.7460   36.9040   58.8940 C.ar    0  <0>0        0.0115
     15  C11        9.3400   37.2470   60.0940 C.ar    0  <0>0       -0.0013
     16  C10       10.1710   36.3480   60.7360 C.ar    0  <0>0       -0.0001
     17  C9        10.4040   35.1020   60.1850 C.ar    0  <0>0        0.0031
     18  C8         9.8080   34.7520   58.9890 C.ar    0  <0>0        0.0366
     19  C13        7.8440   37.8860   58.1910 C.3     0  <0>0        0.0253
     20  C14        7.1210   38.7480   59.2290 C.3     0  <0>0        0.0048
     21  C15        8.6830   38.7830   57.2780 C.3     0  <0>0        0.0048
@<TRIPOS>BOND
     1     5     6    1
     2     5     4    1
     3     6     2    2
     4     4     3    1
     5     2     3    1
     6     2     1    1
     7     3     7    1
     8     1    12    1
     9    12    13    1
    10    21    19    1
    11     7     8    1
    12     7     9    1
    13    19    14    1
    14    19    20    1
    15    13    14   ar
    16    13    18   ar
    17    14    15   ar
    18    18    17   ar
    19     9    10    1
    20    15    16   ar
    21    17    16   ar
    22    10    11    1
