@<TRIPOS>MOLECULE
ZINC20524245_replica-1.pdb
 20 20 0 0 0
SMALL
GASTEIGER

@<TRIPOS>ATOM
      1  C8         9.5670   36.4210   59.8690 C.ar    0  <0>0        0.0446
      2  C9        10.0250   35.1550   59.5310 C.ar    0  <0>0        0.0140
      3  C10       10.8880   34.4860   60.3780 C.ar    0  <0>0       -0.0030
      4  C11       11.2870   35.0730   61.5640 C.ar    0  <0>0       -0.0227
      5  C12       10.8290   36.3320   61.9060 C.ar    0  <0>0       -0.0030
      6  C13        9.9700   37.0080   61.0620 C.ar    0  <0>0        0.0140
      7  N1         8.6980   37.1020   59.0130 N.pl3   0  <0>0       -0.3340
      8  H16        9.0590   37.9650   58.4340 H       0  <0>0        0.1468
      9  C2         7.3040   36.6670   58.8850 C.3     0  <0>0        0.0714
     10  C1         6.4500   37.3780   59.9350 C.3     0  <0>0        0.0212
     11  C3         6.7870   37.0120   57.4870 C.3     0  <0>0        0.0467
     12  C4         7.0710   35.8470   56.5360 C.3     0  <0>0        0.0946
     13  C5         5.7970   35.5000   55.7630 C.3     0  <0>0        0.0297
     14  C6         8.1720   36.2470   55.5530 C.3     0  <0>0        0.0297
     15  O1         7.4950   34.7090   57.2900 O.3     0  <0>0       -0.3558
     16  C7         7.7040   33.5350   56.5020 C.3     0  <0>0        0.1739
     17  C14       12.2250   34.3380   62.4880 C.3     0  <0>0        0.0189
     18  C15       12.3960   35.1360   63.7820 C.3     0  <0>0        0.0044
     19  C16       11.6460   32.9600   62.8110 C.3     0  <0>0        0.0044
     20  C17       13.5850   34.1730   61.8070 C.3     0  <0>0        0.0044
@<TRIPOS>BOND
     1    14    12    1
     2    13    12    1
     3    16    15    1
     4    12    15    1
     5    12    11    1
     6    11     9    1
     7     8     7    1
     8     9     7    1
     9     9    10    1
    10     7     1    1
    11     2     1   ar
    12     2     3   ar
    13     1     6   ar
    14     3     4   ar
    15     6     5   ar
    16     4     5   ar
    17     4    17    1
    18    20    17    1
    19    17    19    1
    20    17    18    1
