@<TRIPOS>MOLECULE
ZINC42365396_replica-1.pdb
 21 23 0 0 0
SMALL
GASTEIGER

@<TRIPOS>ATOM
      1  C7        -0.4250   28.0640   54.6980 C.ar    0  <0>0        0.0608
      2  C8        -0.9180   27.8450   53.3890 C.ar    0  <0>0        0.0317
      3  C9        -1.6950   28.8110   52.7350 C.ar    0  <0>0        0.0027
      4  C10       -2.1530   28.5670   51.4750 C.ar    0  <0>0        0.0001
      5  C11       -1.8590   27.3690   50.8290 C.ar    0  <0>0        0.0015
      6  C12       -1.1070   26.4110   51.4380 C.ar    0  <0>0        0.0191
      7  C13       -0.6170   26.6260   52.7360 C.ar    0  <0>0        0.0825
      8  N2         0.1260   25.6960   53.3520 N.ar    0  <0>0       -0.2430
      9  C14        0.5950   25.8720   54.5610 C.ar    0  <0>0        0.1103
     10  C15        0.3500   27.0520   55.2810 C.ar    0  <0>0        0.1008
     11  C16        0.8830   27.2170   56.6000 C.1     0  <0>0        0.1032
     12  N3         1.3040   27.3480   57.6470 N.1     0  <0>0       -0.1907
     13  N1        -0.6920   29.2360   55.3740 N.pl3   0  <0>0       -0.3012
     14  C1         0.3200   30.2930   55.4370 C.3     0  <0>0        0.1125
     15  C2        -1.9900   29.4250   56.0280 C.3     0  <0>0        0.1183
     16  C3        -1.9530   28.8100   57.4030 C.ar    0  <0>0        0.0051
     17  C6        -2.5960   27.6440   57.6530 C.ar    0  <0>0        0.0333
     18  S1        -2.2320   27.3840   59.3810 S.2     0  <0>0       -0.0799
     19  C5        -1.2550   28.8520   59.6570 C.ar    0  <0>0        0.0636
     20  C4        -1.2680   29.4320   58.4310 C.ar    0  <0>0        0.0111
     21 Br         -0.4180   29.4460   61.2450 Br      0  <0>0       -0.0419
@<TRIPOS>BOND
     1     5     6   ar
     2     5     4   ar
     3     6     7   ar
     4     4     3   ar
     5     3     2   ar
     6     7     8   ar
     7     7     2   ar
     8     8     9   ar
     9     2     1   ar
    10     9    10   ar
    11     1    10   ar
    12     1    13    1
    13    10    11    1
    14    13    14    1
    15    13    15    1
    16    15    16    1
    17    11    12    3
    18    16    17   ar
    19    16    20   ar
    20    17    18   ar
    21    20    19   ar
    22    18    19   ar
    23    19    21    1
