@<TRIPOS>MOLECULE
ZINC11822208_replica-1.pdb
 24 25 0 0 0
SMALL
GASTEIGER

@<TRIPOS>ATOM
      1  C11       -2.4720   30.3190   53.1150 C.3     0  <0>0        0.2525
      2  C10       -3.0940   30.5680   54.4900 C.3     0  <0>0        0.2525
      3  O1        -2.0570   30.7080   55.4630 O.3     0  <0>0       -0.4714
      4  C7        -2.0090   29.7770   56.4530 C.ar    0  <0>0        0.1387
      5  C6        -2.9150   28.7270   56.4640 C.ar    0  <0>0        0.0366
      6  C5        -2.8640   27.7820   57.4700 C.ar    0  <0>0       -0.0012
      7  C4        -1.9110   27.8840   58.4680 C.ar    0  <0>0       -0.0223
      8  C9        -1.0080   28.9310   58.4600 C.ar    0  <0>0       -0.0012
      9  C8        -1.0510   29.8750   57.4510 C.ar    0  <0>0        0.0366
     10  C2        -1.8570   26.8530   59.5650 C.3     0  <0>0        0.0224
     11  C1        -2.6880   27.3330   60.7580 C.3     0  <0>0        0.0047
     12  C3        -2.4250   25.5290   59.0490 C.3     0  <0>0        0.0047
     13  O2        -1.2520   29.5920   53.2680 O.3     0  <0>0       -0.4714
     14  C12       -1.1940   28.3590   52.7050 C.ar    0  <0>0        0.1403
     15  C17       -0.4170   27.3520   53.2930 C.ar    0  <0>0        0.0535
     16  C16       -0.3660   26.0860   52.7030 C.ar    0  <0>0        0.0048
     17  C15       -1.0770   25.8370   51.5500 C.ar    0  <0>0        0.0003
     18  C14       -1.8440   26.8350   50.9720 C.ar    0  <0>0        0.0031
     19  C13       -1.9070   28.0890   51.5480 C.ar    0  <0>0        0.0370
     20  C18        0.3420   27.6260   54.5270 C.2     0  <0>0        0.0810
     21  S1         0.3630   26.4710   55.7920 S.2     0  <0>0       -0.0351
     22  N1         1.0160   28.7840   54.6600 N.am    0  <0>0       -0.3516
     23  H20        1.0030   29.4380   53.9440 H       0  <0>0        0.1428
     24  H21        1.5150   28.9650   55.4730 H       0  <0>0        0.1428
@<TRIPOS>BOND
     1    18    19   ar
     2    18    17   ar
     3    19    14   ar
     4    17    16   ar
     5    16    15   ar
     6    14    13    1
     7    14    15   ar
     8     1    13    1
     9     1     2    1
    10    15    20    1
    11    23    22    1
    12     2     3    1
    13    20    22    1
    14    20    21    2
    15    22    24    1
    16     3     4    1
    17     4     5   ar
    18     4     9   ar
    19     5     6   ar
    20     9     8   ar
    21     6     7   ar
    22     8     7   ar
    23     7    10    1
    24    12    10    1
    25    10    11    1
