@<TRIPOS>MOLECULE
ZINC12595671_replica-1.pdb
 25 28 0 0 0
SMALL
GASTEIGER

@<TRIPOS>ATOM
      1  C10        0.2810   30.3400   55.0330 C.3     0  <0>0        0.1430
      2  C6         0.3250   31.0470   56.3630 C.2     0  <0>0        0.1172
      3  N1         0.3580   30.3450   57.4850 N.2     0  <0>0       -0.3927
      4  C5         0.3960   30.9430   58.6740 C.2     0  <0>0        0.1921
      5  C4         0.4300   30.1590   59.8420 C.2     0  <0>0        0.0481
      6  N2         0.4040   32.3060   58.7740 N.am    0  <0>0       -0.2111
      7  C3         0.4710   30.7710   61.0590 C.2     0  <0>0        0.0010
      8  C2         0.4780   32.1710   61.1280 C.2     0  <0>0       -0.0064
      9  C1         0.5230   32.8570   62.4700 C.3     0  <0>0        0.0324
     10  C9         0.4450   32.9080   59.9950 C.2     0  <0>0        0.0701
     11  C8         0.3720   33.0620   57.6570 C.2     0  <0>0        0.2418
     12  C7         0.3370   32.4280   56.4090 C.3     0  <0>0        0.1420
     13  O1         0.3790   34.2810   57.7320 O.2     0  <0>0       -0.2737
     14  N3        -0.7090   29.2620   55.0860 N.pl3   0  <0>0       -0.3275
     15  H10       -1.6240   29.4560   55.3460 H       0  <0>0        0.1472
     16  C11       -0.3390   27.9550   54.7610 C.ar    0  <0>0        0.0406
     17  C16       -0.6520   27.4370   53.5030 C.ar    0  <0>0       -0.0130
     18  C15       -0.2820   26.1510   53.1860 C.ar    0  <0>0       -0.0250
     19  C17       -1.3940   28.3290   52.5430 C.3     0  <0>0        0.0273
     20  C14        0.3940   25.3780   54.1210 C.ar    0  <0>0       -0.0045
     21  C20       -0.5790   25.5300   51.8460 C.3     0  <0>0        0.0261
     22  C13        0.7030   25.8870   55.3660 C.ar    0  <0>0        0.0009
     23  C12        0.3380   27.1800   55.6890 C.ar    0  <0>0        0.0140
     24  C19       -1.6690   26.3150   51.1190 C.3     0  <0>0        0.0050
     25  C18       -1.2760   27.7970   51.1160 C.3     0  <0>0        0.0051
@<TRIPOS>BOND
     1    25    24    1
     2    25    19    1
     3    24    21    1
     4    21    18    1
     5    19    17    1
     6    18    17   ar
     7    18    20   ar
     8    17    16   ar
     9    20    22   ar
    10    16    14    1
    11    16    23   ar
    12     1    14    1
    13     1     2    1
    14    14    15    1
    15    22    23   ar
    16     2    12    1
    17     2     3    2
    18    12    11    1
    19     3     4    2
    20    11    13    2
    21    11     6   am
    22     4     6    1
    23     4     5    1
    24     6    10    1
    25     5     7    2
    26    10     8    2
    27     7     8    1
    28     8     9    1
