@<TRIPOS>MOLECULE
ZINC08924172_replica-1.pdb
 32 35 0 0 0
SMALL
GASTEIGER

@<TRIPOS>ATOM
      1  C8        10.1690   35.0380   60.4390 C.ar    0  <0>0        0.0623
      2  C9         9.7070   33.8190   60.8320 C.ar    0  <0>0        0.0422
      3  C10       10.7180   33.2500   61.7290 C.ar    0  <0>0        0.0227
      4  C11       10.8180   32.0460   62.4300 C.ar    0  <0>0        0.0020
      5  C12       11.9200   31.7980   63.1980 C.ar    0  <0>0        0.0001
      6  C13       12.9450   32.7310   63.2840 C.ar    0  <0>0        0.0015
      7  C14       12.8690   33.9230   62.5960 C.ar    0  <0>0        0.0170
      8  C15       11.7560   34.1970   61.8070 C.ar    0  <0>0        0.0571
      9  N1        11.4000   35.2720   61.0220 N.ar    0  <0>0       -0.3527
     10  H1        11.9340   36.0720   60.8970 H       0  <0>0        0.1660
     11  S1         8.1830   33.0710   60.3600 S.3     0  <0>0       -0.1104
     12  C16        8.6600   31.8690   59.0880 C.3     0  <0>0        0.0834
     13  C17        7.4130   31.3950   58.3400 C.3     0  <0>0        0.1017
     14  N2         6.8700   32.4990   57.5460 N.am    0  <0>0       -0.2999
     15  C18        5.5490   32.7650   57.5740 C.2     0  <0>0        0.2464
     16  O2         4.8070   32.0870   58.2590 O.2     0  <0>0       -0.2701
     17  H17        7.4620   33.0400   56.9990 H       0  <0>0        0.1498
     18  C19        5.0010   33.8780   56.7720 C.ar    0  <0>0        0.0596
     19  C24        4.8180   35.1350   57.3510 C.ar    0  <0>0        0.0389
     20  C23        4.3060   36.1720   56.5940 C.ar    0  <0>0        0.0068
     21 Br          5.2680   35.4200   59.1650 Br      0  <0>0       -0.0489
     22  C22        3.9760   35.9660   55.2670 C.ar    0  <0>0        0.0005
     23  C21        4.1570   34.7220   54.6880 C.ar    0  <0>0        0.0002
     24  C20        4.6720   33.6800   55.4300 C.ar    0  <0>0        0.0050
     25  C5         9.4630   35.9650   59.5320 C.ar    0  <0>0        0.0163
     26  C4         9.1200   37.2470   59.9690 C.ar    0  <0>0        0.0046
     27  C3         8.4620   38.1100   59.1190 C.ar    0  <0>0        0.0369
     28  C2         8.1400   37.7070   57.8290 C.ar    0  <0>0        0.1387
     29  C7         8.4800   36.4340   57.3910 C.ar    0  <0>0        0.0369
     30  C6         9.1420   35.5660   58.2320 C.ar    0  <0>0        0.0046
     31  O1         7.4920   38.5610   56.9940 O.3     0  <0>0       -0.4714
     32  C1         7.2450   38.1040   55.6630 C.3     0  <0>0        0.2525
@<TRIPOS>BOND
     1    23    22   ar
     2    23    24   ar
     3    22    20   ar
     4    24    18   ar
     5    32    31    1
     6    20    19   ar
     7    18    19   ar
     8    18    15    1
     9    31    28    1
    10    17    14    1
    11    19    21    1
    12    29    28   ar
    13    29    30   ar
    14    14    15   am
    15    14    13    1
    16    15    16    2
    17    28    27   ar
    18    30    25   ar
    19    13    12    1
    20    12    11    1
    21    27    26   ar
    22    25    26   ar
    23    25     1    1
    24    11     2    1
    25     1     2   ar
    26     1     9   ar
    27     2     3   ar
    28    10     9    1
    29     9     8   ar
    30     3     8   ar
    31     3     4   ar
    32     8     7   ar
    33     4     5   ar
    34     7     6   ar
    35     5     6   ar
