@<TRIPOS>MOLECULE
ZINC39252981_replica-1.pdb
 29 31 0 0 0
SMALL
GASTEIGER

@<TRIPOS>ATOM
      1  C13        0.9310   32.4080   56.4640 C.2     0  <0>0        0.2856
      2  O2         1.8360   31.7020   56.8550 O.2     0  <0>0       -0.2693
      3  N1         0.1100   31.9730   55.4870 N.am    0  <0>0       -0.2028
      4  H18       -0.6140   32.5370   55.1740 H       0  <0>0        0.1774
      5  C12        0.7220   33.7720   57.0710 C.3     0  <0>0        0.2911
      6  O1         1.5000   34.7340   56.3570 O.3     0  <0>0       -0.4656
      7  C9         2.6460   35.1620   56.9480 C.ar    0  <0>0        0.1393
      8  C8         3.7400   35.5130   56.1700 C.ar    0  <0>0        0.0366
      9  C7         4.9040   35.9480   56.7740 C.ar    0  <0>0       -0.0012
     10  C6         4.9800   36.0330   58.1520 C.ar    0  <0>0       -0.0223
     11  C11        3.8930   35.6790   58.9290 C.ar    0  <0>0       -0.0012
     12  C10        2.7250   35.2490   58.3300 C.ar    0  <0>0        0.0366
     13  C4         6.2510   36.5080   58.8070 C.3     0  <0>0        0.0223
     14  C5         5.9070   37.3830   60.0140 C.3     0  <0>0        0.0047
     15  C3         7.0680   37.3240   57.8030 C.3     0  <0>0        0.0044
     16  C2         8.5520   36.9800   57.9550 C.3     0  <0>0        0.0003
     17  C1         8.6990   35.4930   58.2860 C.3     0  <0>0        0.0000
     18  N2         0.3040   30.7050   54.9230 N.2     0  <0>0       -0.1775
     19  C14       -0.3640   29.6760   55.3800 C.2     0  <0>0        0.1191
     20  C15       -0.1690   28.4070   54.8150 C.ar    0  <0>0        0.0391
     21  C22        0.6010   27.2490   55.4120 C.ar    0  <0>0        0.0740
     22  N3         0.5070   26.1560   54.4390 N.ar    0  <0>0       -0.3520
     23  C21       -0.1950   26.5580   53.4000 C.ar    0  <0>0        0.0567
     24  H26        0.9020   25.2770   54.5430 H       0  <0>0        0.1660
     25  C16       -0.6380   27.9510   53.5850 C.ar    0  <0>0        0.0186
     26  C20       -0.5660   25.8920   52.2020 C.ar    0  <0>0        0.0170
     27  C17       -1.4080   28.5630   52.5710 C.ar    0  <0>0        0.0015
     28  C18       -1.7250   27.8630   51.4540 C.ar    0  <0>0        0.0001
     29  C19       -1.3070   26.5420   51.2720 C.ar    0  <0>0        0.0015
@<TRIPOS>BOND
     1    29    28   ar
     2    29    26   ar
     3    28    27   ar
     4    26    23   ar
     5    27    25   ar
     6    23    25   ar
     7    23    22   ar
     8    25    20   ar
     9    22    24    1
    10    22    21   ar
    11    20    19    1
    12    20    21   ar
    13    18    19    2
    14    18     3    1
    15     4     3    1
    16     3     1   am
    17     8     9   ar
    18     8     7   ar
    19     6     7    1
    20     6     5    1
    21     1     2    2
    22     1     5    1
    23     9    10   ar
    24     7    12   ar
    25    15    16    1
    26    15    13    1
    27    16    17    1
    28    10    13    1
    29    10    11   ar
    30    12    11   ar
    31    13    14    1
