@<TRIPOS>MOLECULE
ZINC66886773_replica-1.pdb
 23 23 0 0 0
SMALL
GASTEIGER

@<TRIPOS>ATOM
      1  C8        -2.0820   30.3060   55.7080 C.2     0  <0>0        0.3353
      2  O3        -2.8130   31.2200   56.0100 O.2     0  <0>0       -0.2483
      3  C4        -0.7650   30.1290   56.4180 C.3     0  <0>0        0.1739
      4  N1        -0.5070   31.2940   57.2670 N.am    0  <0>0       -0.2624
      5  C3         0.4930   32.1430   56.9580 C.2     0  <0>0        0.4020
      6  O2         1.1810   31.9420   55.9770 O.2     0  <0>0       -0.2264
      7  H8        -1.0550   31.4550   58.0490 H       0  <0>0        0.1532
      8  O1         0.7310   33.2140   57.7390 O.3     0  <0>0       -0.4347
      9  C2         1.0590   32.9610   59.1070 C.3     0  <0>0        0.2102
     10  C1         0.4940   34.0810   59.9830 C.3     0  <0>0        0.0513
     11  C5        -0.8190   28.8690   57.2830 C.3     0  <0>0        0.0290
     12  C6         0.5070   28.1140   57.1680 C.3     0  <0>0        0.0023
     13  C7        -1.0560   29.2620   58.7430 C.3     0  <0>0        0.0023
     14  O4        -2.4440   29.4510   54.7400 O.3     0  <0>0       -0.4466
     15  C9        -1.8550   29.6400   53.4510 C.3     0  <0>0        0.1913
     16  C10       -2.8950   30.2260   52.4960 C.3     0  <0>0        0.0524
     17  C11       -1.3740   28.3140   52.9190 C.ar    0  <0>0        0.0195
     18  C16       -0.5690   27.5070   53.7010 C.ar    0  <0>0        0.0288
     19  C15       -0.1320   26.2870   53.2140 C.ar    0  <0>0        0.1399
     20  C14       -0.4930   25.8820   51.9400 C.ar    0  <0>0        0.0296
     21  F1         0.6490   25.4940   53.9800 F       0  <0>0       -0.2042
     22  C13       -1.2920   26.6930   51.1570 C.ar    0  <0>0        0.0021
     23  C12       -1.7330   27.9090   51.6470 C.ar    0  <0>0       -0.0007
@<TRIPOS>BOND
     1    22    23   ar
     2    22    20   ar
     3    23    17   ar
     4    20    19   ar
     5    16    15    1
     6    17    15    1
     7    17    18   ar
     8    19    18   ar
     9    19    21    1
    10    15    14    1
    11    14     1    1
    12     1     2    2
    13     1     3    1
    14     6     5    2
    15     3     4    1
    16     3    11    1
    17     5     4   am
    18     5     8    1
    19    12    11    1
    20     4     7    1
    21    11    13    1
    22     8     9    1
    23     9    10    1
