@<TRIPOS>MOLECULE
ZINC27909869_replica-1.pdb
 28 30 0 0 0
SMALL
GASTEIGER

@<TRIPOS>ATOM
      1  N1         7.2870   35.1020   58.6390 N.pl3   0  <0>0       -0.2797
      2  C6         7.2380   35.5840   57.3430 C.2     0  <0>0        0.0645
      3  C7         8.3610   36.3270   57.1620 C.2     0  <0>0        0.0748
      4  N2         9.0630   36.3090   58.3030 N.pl3   0  <0>0       -0.3039
      5  C8         8.4350   35.5770   59.1950 C.3     0  <0>0        0.2112
      6  N3         8.8680   35.3330   60.4850 N.3     0  <0>0       -0.2626
      7  H13        8.2650   34.7050   61.1580 H       0  <0>0        0.1266
      8  H28       10.0120   36.8600   58.3720 H       0  <0>0        0.1496
      9  C5         6.2930   34.2450   59.2910 C.3     0  <0>0        0.0936
     10  C4         5.1410   35.1080   59.8110 C.3     0  <0>0        0.0215
     11  C2         3.8080   34.4350   59.4740 C.3     0  <0>0        0.0017
     12  C1         2.8620   35.4620   58.8490 C.3     0  <0>0        0.0001
     13  C3         4.0480   33.2940   58.4840 C.3     0  <0>0        0.0001
     14  C9        10.1290   35.9100   60.9560 C.3     0  <0>0        0.0981
     15  C10       10.9530   34.8390   61.6250 C.ar    0  <0>0       -0.0063
     16  C15       12.1220   35.1770   62.2810 C.ar    0  <0>0       -0.0024
     17  C14       12.8790   34.1990   62.8940 C.ar    0  <0>0        0.0059
     18  C13       12.4640   32.8730   62.8510 C.ar    0  <0>0        0.0252
     19  C12       11.2890   32.5370   62.1900 C.ar    0  <0>0        0.0059
     20  C11       10.5350   33.5220   61.5840 C.ar    0  <0>0       -0.0024
     21  S1        13.4270   31.6200   63.6330 S.3     0  <0>0       -0.1127
     22  C16       12.2100   30.3590   64.1000 C.3     0  <0>0        0.0742
     23  C17        6.1750   35.3320   56.3480 C.ar    0  <0>0        0.0147
     24  C22        6.2230   34.1930   55.5420 C.ar    0  <0>0        0.0013
     25  C21        5.2270   33.9650   54.6150 C.ar    0  <0>0        0.0000
     26  C20        4.1840   34.8620   54.4810 C.ar    0  <0>0        0.0000
     27  C19        4.1290   35.9930   55.2760 C.ar    0  <0>0        0.0000
     28  C18        5.1180   36.2340   56.2080 C.ar    0  <0>0        0.0013
@<TRIPOS>BOND
     1    26    25   ar
     2    26    27   ar
     3    25    24   ar
     4    27    28   ar
     5    24    23   ar
     6    28    23   ar
     7    23     2    1
     8     3     2    2
     9     3     4    1
    10     2     1    1
    11     4     8    1
    12     4     5    1
    13    13    11    1
    14     1     5    1
    15     1     9    1
    16    12    11    1
    17     5     6    1
    18     9    10    1
    19    11    10    1
    20     6    14    1
    21     6     7    1
    22    14    15    1
    23    20    15   ar
    24    20    19   ar
    25    15    16   ar
    26    19    18   ar
    27    16    17   ar
    28    18    17   ar
    29    18    21    1
    30    21    22    1
