@<TRIPOS>MOLECULE
ZINC02679473_replica-1.pdb
 29 32 0 0 0
SMALL
GASTEIGER

@<TRIPOS>ATOM
      1  C13        3.8930   35.8630   57.0780 C.2     0  <0>0        0.1854
      2  O1         3.0590   36.0310   57.9420 O.2     0  <0>0       -0.2904
      3  C10        5.2960   36.1890   57.3400 C.ar    0  <0>0        0.0487
      4  C9         6.1990   36.9700   56.4840 C.ar    0  <0>0        0.0171
      5  C8         7.3820   37.0140   57.1190 C.ar    0  <0>0        0.0415
      6  N1         7.2840   36.3260   58.2960 N.ar    0  <0>0       -0.3134
      7  C23        8.6180   37.7110   56.6150 C.3     0  <0>0        0.0504
      8  C11        6.0410   35.8290   58.4470 C.ar    0  <0>0        0.0442
      9  C12        5.5480   35.0190   59.6200 C.3     0  <0>0        0.0505
     10  C5         8.3280   36.1640   59.2180 C.ar    0  <0>0        0.0634
     11  C4         8.4530   37.0390   60.2880 C.ar    0  <0>0        0.0172
     12  C3         9.4820   36.8770   61.1940 C.ar    0  <0>0       -0.0028
     13  C2        10.3890   35.8440   61.0370 C.ar    0  <0>0       -0.0218
     14  C1        11.5110   35.6700   62.0270 C.3     0  <0>0        0.0310
     15  C7        10.2670   34.9710   59.9710 C.ar    0  <0>0       -0.0028
     16  C6         9.2370   35.1250   59.0640 C.ar    0  <0>0        0.0172
     17  C14        3.4850   35.3180   55.7330 C.3     0  <0>0        0.1322
     18  S1         4.4850   33.8600   55.3430 S.3     0  <0>0       -0.0906
     19  C15        3.9340   32.7630   56.6060 C.2     0  <0>0        0.0910
     20  N3         2.6410   32.5410   56.7830 N.2     0  <0>0       -0.2417
     21  C20        2.1890   31.7260   57.7200 C.3     0  <0>0        0.2511
     22  N2         3.0100   31.0890   58.5320 N.2     0  <0>0       -0.2414
     23  C19        4.3150   31.2520   58.4260 C.2     0  <0>0        0.0943
     24  C16        4.8730   32.1060   57.4510 C.3     0  <0>0        0.1102
     25  S2         5.7340   30.6150   59.2770 S.3     0  <0>0       -0.0769
     26  C17        6.3230   32.1800   57.4610 C.2     0  <0>0       -0.0301
     27  C18        7.0090   31.4610   58.3610 C.2     0  <0>0        0.0016
     28  C22        7.0490   33.0550   56.4710 C.3     0  <0>0        0.0273
     29  C21        8.5020   31.3850   58.5530 C.3     0  <0>0        0.0376
@<TRIPOS>BOND
     1    18    17    1
     2    18    19    1
     3    17     1    1
     4    28    26    1
     5     4     5   ar
     6     4     3   ar
     7    19    20    2
     8    19    24    1
     9     7     5    1
    10    20    21    1
    11     1     3    1
    12     1     2    2
    13     5     6   ar
    14     3     8   ar
    15    24    26    1
    16    24    23    1
    17    26    27    2
    18    21    22    1
    19     6     8   ar
    20     6    10    1
    21    27    29    1
    22    27    25    1
    23    23    22    2
    24    23    25    1
    25     8     9    1
    26    16    10   ar
    27    16    15   ar
    28    10    11   ar
    29    15    13   ar
    30    11    12   ar
    31    13    12   ar
    32    13    14    1
