@<TRIPOS>MOLECULE
ZINC62753568_replica-1.pdb
 20 20 0 0 0
SMALL
GASTEIGER

@<TRIPOS>ATOM
      1  C9        -0.9830   28.3360   53.3830 C.ar    0  <0>0       -0.0157
      2  C10       -0.1790   27.3870   53.9900 C.ar    0  <0>0       -0.0039
      3  C11        0.0080   26.1550   53.4000 C.ar    0  <0>0        0.0063
      4  C12       -0.6190   25.8640   52.1840 C.ar    0  <0>0        0.0820
      5  C13       -1.4290   26.8240   51.5750 C.ar    0  <0>0        0.0358
      6  C14       -1.6110   28.0530   52.1810 C.ar    0  <0>0        0.1343
      7  F1        -2.4000   28.9820   51.5980 F       0  <0>0       -0.2046
      8  C8        -1.1820   29.6800   54.0360 C.3     0  <0>0       -0.0476
      9  N1        -0.5160   29.6910   55.3450 N.4     0  <0>0        0.3896
     10  C7         0.4260   30.8160   55.4060 C.3     0  <0>0       -0.1001
     11  H22       -0.0140   28.8250   55.4750 H       0  <0>0       -0.0792
     12  C2        -1.5230   29.8360   56.4050 C.3     0  <0>0       -0.0576
     13  C1        -2.9220   29.7220   55.7970 C.3     0  <0>0       -0.0229
     14  C3        -1.3280   28.7360   57.4490 C.3     0  <0>0       -0.0171
     15  C4        -0.1330   27.8650   57.0540 C.3     0  <0>0       -0.0020
     16  C5        -1.0660   29.3690   58.8160 C.3     0  <0>0       -0.0020
     17  C6        -2.5870   27.8710   57.5200 C.3     0  <0>0       -0.0020
     18  C15       -0.4220   24.5480   51.5470 C.2     0  <0>0        0.3878
     19  O1        -0.1980   24.4760   50.3470 O.co2   0  <0>0       -0.2406
     20  O2        -0.4840   23.5280   52.2200 O.co2   0  <0>0       -0.2406
@<TRIPOS>BOND
     1    19    18   ar
     2    18     4    1
     3    18    20   ar
     4     5     6   ar
     5     5     4   ar
     6     7     6    1
     7     6     1   ar
     8     4     3   ar
     9     1     2   ar
    10     1     8    1
    11     3     2   ar
    12     8     9    1
    13     9    10    1
    14     9    11    1
    15     9    12    1
    16    13    12    1
    17    12    14    1
    18    15    14    1
    19    14    17    1
    20    14    16    1
