@<TRIPOS>MOLECULE
ZINC66876166_replica-1.pdb
 24 24 0 0 0
SMALL
GASTEIGER

@<TRIPOS>ATOM
      1  C8         9.4160   34.2190   60.2370 C.2     0  <0>0        0.3353
      2  O3         9.0420   33.0740   60.1480 O.2     0  <0>0       -0.2483
      3  C4         8.4600   35.3500   59.9580 C.3     0  <0>0        0.1739
      4  N1         7.3220   34.8460   59.1840 N.am    0  <0>0       -0.2624
      5  C3         6.0730   34.9450   59.6800 C.2     0  <0>0        0.4020
      6  O2         5.8900   35.4520   60.7700 O.2     0  <0>0       -0.2264
      7  H8         7.4680   34.4410   58.3140 H       0  <0>0        0.1532
      8  O1         5.0280   34.4820   58.9690 O.3     0  <0>0       -0.4347
      9  C2         3.7250   34.8860   59.3930 C.3     0  <0>0        0.2102
     10  C1         3.1560   35.8990   58.3970 C.3     0  <0>0        0.0513
     11  C5         9.1770   36.4400   59.1600 C.3     0  <0>0        0.0290
     12  C6         8.6670   36.4340   57.7170 C.3     0  <0>0        0.0023
     13  C7         8.8970   37.8040   59.7940 C.3     0  <0>0        0.0023
     14  O4        10.6860   34.4850   60.5830 O.3     0  <0>0       -0.4465
     15  C9        10.9460   34.7200   61.9690 C.3     0  <0>0        0.1935
     16  C10       11.4190   36.1630   62.1610 C.3     0  <0>0        0.0525
     17  C11       12.0140   33.7730   62.4480 C.ar    0  <0>0        0.0470
     18  C16       11.6730   32.4980   62.8650 C.ar    0  <0>0        0.1396
     19  C15       12.6550   31.6250   63.3010 C.ar    0  <0>0        0.0317
     20  F1        10.3810   32.1030   62.8420 F       0  <0>0       -0.2044
     21  C14       13.9760   32.0310   63.3290 C.ar    0  <0>0        0.0319
     22  C13       14.3170   33.3070   62.9170 C.ar    0  <0>0        0.1401
     23  C12       13.3360   34.1780   62.4760 C.ar    0  <0>0        0.0311
     24  F2        15.6090   33.7030   62.9450 F       0  <0>0       -0.2042
@<TRIPOS>BOND
     1    12    11    1
     2     7     4    1
     3    10     9    1
     4     8     9    1
     5     8     5    1
     6    11    13    1
     7    11     3    1
     8     4     5   am
     9     4     3    1
    10     5     6    2
    11     3     1    1
    12     2     1    2
    13     1    14    1
    14    14    15    1
    15    15    16    1
    16    15    17    1
    17    17    23   ar
    18    17    18   ar
    19    23    22   ar
    20    20    18    1
    21    18    19   ar
    22    22    24    1
    23    22    21   ar
    24    19    21   ar
