@<TRIPOS>MOLECULE
ZINC12559557_replica-1.pdb
 32 35 0 0 0
SMALL
GASTEIGER

@<TRIPOS>ATOM
      1  C7        -1.2080   30.1830   56.6840 C.3     0  <0>0        0.1171
      2  C4        -1.6700   29.0490   57.5620 C.ar    0  <0>0       -0.0048
      3  C3        -1.0930   28.8590   58.8040 C.ar    0  <0>0       -0.0029
      4  C2        -1.5160   27.8180   59.6100 C.ar    0  <0>0       -0.0003
      5  C1        -2.5170   26.9700   59.1760 C.ar    0  <0>0       -0.0000
      6  C6        -3.0940   27.1610   57.9350 C.ar    0  <0>0       -0.0003
      7  C5        -2.6740   28.2040   57.1300 C.ar    0  <0>0       -0.0029
      8  C8        -1.4930   29.8420   55.2190 C.3     0  <0>0        0.1092
      9  N1        -0.2660   29.3500   54.5860 N.pl3   0  <0>0       -0.3313
     10  H9         0.4230   29.9750   54.3120 H       0  <0>0        0.1469
     11  C9        -0.0910   27.9840   54.3760 C.ar    0  <0>0        0.0446
     12  C14       -0.5700   27.3770   53.1950 C.ar    0  <0>0        0.0131
     13  C13       -0.3850   25.9860   53.0060 C.ar    0  <0>0        0.0012
     14  C15       -1.2310   28.1250   52.2090 C.ar    0  <0>0        0.0012
     15  C12        0.2820   25.2360   53.9900 C.ar    0  <0>0        0.0001
     16  C18       -0.8580   25.3820   51.8290 C.ar    0  <0>0        0.0000
     17  C11        0.7350   25.8470   55.1200 C.ar    0  <0>0        0.0013
     18  C10        0.5540   27.2120   55.3200 C.ar    0  <0>0        0.0143
     19  C17       -1.4940   26.1390   50.8920 C.ar    0  <0>0        0.0000
     20  C16       -1.6810   27.5060   51.0830 C.ar    0  <0>0        0.0000
     21  N2         0.2310   30.3880   56.8670 N.3     0  <0>0       -0.1749
     22  H17        0.8300   29.6250   56.8870 H       0  <0>0        0.1492
     23  S1         0.8350   31.9200   57.0410 S.O2    0  <0>0        0.0605
     24  O1         2.2340   31.8340   56.8100 O.2     0  <0>0       -0.1530
     25  O2        -0.0120   32.7760   56.2870 O.2     0  <0>0       -0.1530
     26  C19        0.6300   32.3720   58.7320 C.ar    0  <0>0        0.1220
     27  C24        0.4380   33.6970   59.0750 C.ar    0  <0>0        0.0208
     28  C23        0.2780   34.0520   60.4010 C.ar    0  <0>0        0.0128
     29  C22        0.3100   33.0810   61.3850 C.ar    0  <0>0        0.0578
     30  C21        0.5020   31.7550   61.0410 C.ar    0  <0>0        0.0128
     31 Cl          0.1080   33.5250   63.0510 Cl      0  <0>0       -0.0822
     32  C20        0.6580   31.4000   59.7150 C.ar    0  <0>0        0.0208
@<TRIPOS>BOND
     1    19    20   ar
     2    19    16   ar
     3    20    14   ar
     4    16    13   ar
     5    14    12   ar
     6    13    12   ar
     7    13    15   ar
     8    12    11   ar
     9    15    17   ar
    10    10     9    1
    11    11     9    1
    12    11    18   ar
    13     9     8    1
    14    17    18   ar
    15     8     1    1
    16    25    23    2
    17     1    21    1
    18     1     2    1
    19    24    23    2
    20    21    22    1
    21    21    23    1
    22    23    26    1
    23     7     2   ar
    24     7     6   ar
    25     2     3   ar
    26     6     5   ar
    27    26    27   ar
    28    26    32   ar
    29     3     4   ar
    30    27    28   ar
    31     5     4   ar
    32    32    30   ar
    33    28    29   ar
    34    30    29   ar
    35    29    31    1
