@<TRIPOS>MOLECULE
ZINC36971105_replica-1.pdb
 20 20 0 0 0
SMALL
GASTEIGER

@<TRIPOS>ATOM
      1  C9        10.5870   34.1480   61.3920 C.ar    0  <0>0        0.0554
      2  C10       11.7480   34.8600   61.6620 C.ar    0  <0>0        0.0169
      3  C11       12.7720   34.2630   62.3700 C.ar    0  <0>0        0.0254
      4  C12       12.6430   32.9580   62.8100 C.ar    0  <0>0        0.1438
      5  C13       11.4880   32.2460   62.5430 C.ar    0  <0>0        0.0367
      6  C14       10.4570   32.8390   61.8410 C.ar    0  <0>0        0.0724
      7 Cl          9.0040   31.9470   61.5130 Cl      0  <0>0       -0.0809
      8  N1         9.5470   34.7490   60.6760 N.pl3   0  <0>0       -0.3334
      9  H18        8.6260   34.5100   60.8660 H       0  <0>0        0.1468
     10  C6         9.8480   35.7400   59.6410 C.3     0  <0>0        0.0690
     11  C5         9.2640   37.0950   60.0440 C.3     0  <0>0        0.0195
     12  C3         7.8630   37.2440   59.4480 C.3     0  <0>0        0.0016
     13  C4         6.8170   37.0380   60.5460 C.3     0  <0>0        0.0001
     14  C2         7.7070   38.6440   58.8530 C.3     0  <0>0        0.0001
     15  C1         8.5120   38.7390   57.5550 C.3     0  <0>0        0.0000
     16  C7         9.2320   35.2940   58.3130 C.3     0  <0>0        0.0195
     17  C8         8.7730   33.8390   58.4270 C.3     0  <0>0        0.0017
     18  N2        13.7440   32.3230   63.5680 N.pl3   0  <0>0        0.0577
     19  O1        14.7690   32.9320   63.7730 O.2     0  <0>0       -0.1261
     20  O2        13.6200   31.1930   63.9820 O.2     0  <0>0       -0.1261
@<TRIPOS>BOND
     1    15    14    1
     2    16    17    1
     3    16    10    1
     4    14    12    1
     5    12    11    1
     6    12    13    1
     7    10    11    1
     8    10     8    1
     9     8     9    1
    10     8     1    1
    11     1     2   ar
    12     1     6   ar
    13     7     6    1
    14     2     3   ar
    15     6     5   ar
    16     3     4   ar
    17     5     4   ar
    18     4    18    1
    19    18    19    2
    20    18    20    2
