@<TRIPOS>MOLECULE
ZINC39288935_replica-1.pdb
 24 25 0 0 0
SMALL
GASTEIGER

@<TRIPOS>ATOM
      1  N1        12.6510   34.6540   62.2750 N.pl3   0  <0>0       -0.3295
      2  H10       13.1800   34.8260   61.4790 H       0  <0>0        0.1469
      3  C5        12.5810   33.3710   62.7980 C.ar    0  <0>0        0.0510
      4  C4        11.4030   32.6400   62.7000 C.ar    0  <0>0        0.0142
      5  C3        11.3350   31.3640   63.2190 C.ar    0  <0>0       -0.0030
      6  C2        12.4390   30.8000   63.8430 C.ar    0  <0>0       -0.0216
      7  C1        12.3490   29.4070   64.4070 C.3     0  <0>0        0.0310
      8  C7        13.6130   31.5110   63.9550 C.ar    0  <0>0        0.0034
      9  C6        13.7000   32.8030   63.4280 C.ar    0  <0>0        0.0884
     10  C8        14.9540   33.5660   63.5390 C.2     0  <0>0        0.3425
     11  O1        15.6140   33.7970   62.5460 O.2     0  <0>0       -0.2448
     12  O2        15.3700   34.0080   64.7420 O.3     0  <0>0       -0.4413
     13  C9        16.7580   34.3230   64.8740 C.3     0  <0>0        0.2560
     14  C10       11.9270   35.7510   62.9240 C.3     0  <0>0        0.1351
     15  C11       10.8760   36.3080   61.9620 C.3     0  <0>0        0.2265
     16  O3        10.8710   35.5330   60.7610 O.3     0  <0>0       -0.4736
     17  C12        9.9470   35.8590   59.8200 C.ar    0  <0>0        0.1384
     18  C17        9.2290   37.0410   59.9330 C.ar    0  <0>0        0.0335
     19  C16        8.2940   37.3740   58.9720 C.ar    0  <0>0       -0.0083
     20  C15        8.0660   36.5260   57.9030 C.ar    0  <0>0        0.0539
     21  C18        7.5180   38.6620   59.0900 C.3     0  <0>0        0.0320
     22  C14        8.7780   35.3440   57.7920 C.ar    0  <0>0        0.0142
     23 Cl          6.8860   36.9440   56.7000 Cl      0  <0>0       -0.0826
     24  C13        9.7170   35.0090   58.7480 C.ar    0  <0>0        0.0377
@<TRIPOS>BOND
     1    23    20    1
     2    22    20   ar
     3    22    24   ar
     4    20    19   ar
     5    24    17   ar
     6    19    21    1
     7    19    18   ar
     8    17    18   ar
     9    17    16    1
    10    16    15    1
    11     2     1    1
    12    15    14    1
    13     1     3    1
    14     1    14    1
    15    11    10    2
    16     4     3   ar
    17     4     5   ar
    18     3     9   ar
    19     5     6   ar
    20     9    10    1
    21     9     8   ar
    22    10    12    1
    23     6     8   ar
    24     6     7    1
    25    12    13    1
