@<TRIPOS>MOLECULE
ZINC57671091_replica-1.pdb
 21 22 0 0 0
SMALL
GASTEIGER

@<TRIPOS>ATOM
      1  C5         9.1630   36.2830   58.8680 C.ar    0  <0>0        0.0315
      2  C6         9.7860   35.0500   58.8920 C.ar    0  <0>0        0.0143
      3  C7        10.4640   34.6380   60.0220 C.ar    0  <0>0        0.0155
      4  C8        10.5200   35.4660   61.1360 C.ar    0  <0>0        0.0447
      5  C9         9.8930   36.7060   61.1090 C.ar    0  <0>0        0.0155
      6  C10        9.2210   37.1130   59.9730 C.ar    0  <0>0        0.0143
      7  N2        11.2050   35.0540   62.2820 N.pl3   0  <0>0       -0.3340
      8  H17       10.9910   35.4490   63.1420 H       0  <0>0        0.1468
      9  C11       12.2440   34.0260   62.1850 C.3     0  <0>0        0.0690
     10  C16       11.8610   32.8310   63.0600 C.3     0  <0>0        0.0179
     11  C15       12.9470   31.7580   62.9590 C.3     0  <0>0        0.0016
     12  C17       10.5280   32.2550   62.5800 C.3     0  <0>0        0.0017
     13  C14       14.2810   32.3340   63.4370 C.3     0  <0>0        0.0001
     14  C13       14.6630   33.5300   62.5630 C.3     0  <0>0        0.0017
     15  C12       13.5780   34.6030   62.6650 C.3     0  <0>0        0.0195
     16  N1         8.4770   36.6970   57.7220 N.pl3   0  <0>0       -0.3758
     17  H29        8.8350   36.2020   56.9180 H       0  <0>0        0.1277
     18  C2         7.0450   36.4070   57.8770 C.3     0  <0>0        0.0726
     19  C1         6.6810   35.1760   57.0460 C.3     0  <0>0        0.0215
     20  C3         8.6670   38.1410   57.5330 C.3     0  <0>0        0.0726
     21  C4         7.7070   38.6450   56.4530 C.3     0  <0>0        0.0215
@<TRIPOS>BOND
     1    21    20    1
     2    17    16    1
     3    19    18    1
     4    20    16    1
     5    16    18    1
     6    16     1    1
     7     1     2   ar
     8     1     6   ar
     9     2     3   ar
    10     6     5   ar
    11     3     4   ar
    12     5     4   ar
    13     4     7    1
    14     9     7    1
    15     9    15    1
    16     9    10    1
    17     7     8    1
    18    14    15    1
    19    14    13    1
    20    12    10    1
    21    11    10    1
    22    11    13    1
