@<TRIPOS>MOLECULE
ZINC62726442_replica-1.pdb
 22 23 0 0 0
SMALL
GASTEIGER

@<TRIPOS>ATOM
      1  N1        10.6770   35.3460   61.4710 N.3     0  <0>0       -0.2948
      2  H9        10.7350   34.8850   60.5740 H       0  <0>0        0.1235
      3  C2        11.9850   35.3550   62.1420 C.3     0  <0>0        0.0769
      4  C1        11.9160   36.2520   63.3800 C.3     0  <0>0        0.0220
      5  C3        12.3450   33.9520   62.5580 C.ar    0  <0>0       -0.0079
      6  C8        11.3630   32.9820   62.6430 C.ar    0  <0>0       -0.0007
      7  C7        11.6930   31.6940   63.0200 C.ar    0  <0>0        0.0294
      8  C6        13.0060   31.3770   63.3230 C.ar    0  <0>0        0.1401
      9  C5        13.9880   32.3500   63.2430 C.ar    0  <0>0        0.0294
     10  F1        13.3290   30.1190   63.6960 F       0  <0>0       -0.2042
     11  C4        13.6570   33.6350   62.8610 C.ar    0  <0>0       -0.0007
     12  C9        10.1500   36.7090   61.3300 C.3     0  <0>0        0.0736
     13  C10        8.6830   36.6460   60.8960 C.3     0  <0>0        0.0451
     14  C11        8.5710   37.0420   59.4460 C.ar    0  <0>0        0.0017
     15  C16        8.4140   36.0710   58.4750 C.ar    0  <0>0        0.1389
     16  C15        8.3060   36.4340   57.1460 C.ar    0  <0>0        0.0237
     17  C14        8.3650   37.7670   56.7870 C.ar    0  <0>0        0.0017
     18  C13        8.5280   38.7380   57.7570 C.ar    0  <0>0       -0.0002
     19  C12        8.6310   38.3750   59.0870 C.ar    0  <0>0       -0.0026
     20  N2         8.3540   34.6430   58.8600 N.pl3   0  <0>0        0.0574
     21  O1         7.2840   34.1050   59.0230 O.2     0  <0>0       -0.1261
     22  O2         9.3760   34.0150   59.0100 O.2     0  <0>0       -0.1261
@<TRIPOS>BOND
     1    17    16   ar
     2    17    18   ar
     3    16    15   ar
     4    18    19   ar
     5    15    20    1
     6    15    14   ar
     7    20    22    2
     8    20    21    2
     9    19    14   ar
    10    14    13    1
    11     2     1    1
    12    13    12    1
    13    12     1    1
    14     1     3    1
    15     3     5    1
    16     3     4    1
    17     5     6   ar
    18     5    11   ar
    19     6     7   ar
    20    11     9   ar
    21     7     8   ar
    22     9     8   ar
    23     8    10    1
