@<TRIPOS>MOLECULE
ZINC12861551_replica-1.pdb
 26 28 0 0 0
SMALL
GASTEIGER

@<TRIPOS>ATOM
      1  N1         9.5590   34.1190   60.4660 N.am    0  <0>0       -0.2988
      2  C11        9.1660   34.1180   59.1770 C.2     0  <0>0        0.2716
      3  O1         9.7880   34.7550   58.3530 O.2     0  <0>0       -0.2706
      4  H14        9.0620   33.6090   61.1240 H       0  <0>0        0.1498
      5  C12        7.9530   33.3280   58.7590 C.3     0  <0>0        0.3020
      6  N2         6.7410   34.0190   59.2050 N.am    0  <0>0       -0.1052
      7  C14        5.9170   33.6610   60.2360 C.1     0  <0>0        0.1801
      8  N4         4.9540   34.5530   60.2940 N.2     0  <0>0        0.0474
      9  S1         6.1140   32.2650   61.2930 S.2     0  <0>0        0.0561
     10  N3         5.1110   35.4330   59.3720 N.2     0  <0>0        0.0931
     11  C13        6.1880   35.1620   58.6690 C.2     0  <0>0        0.3703
     12  C15        6.7070   35.9330   57.5280 C.ar    0  <0>0        0.1152
     13  S2         6.7280   35.5000   55.7960 S.2     0  <0>0       -0.0790
     14  C18        7.5140   36.9780   55.1760 C.ar    0  <0>0        0.0357
     15  C17        7.7150   37.6930   56.3140 C.ar    0  <0>0        0.0077
     16  C16        7.3060   37.1660   57.5180 C.ar    0  <0>0        0.0146
     17  C4        10.7390   34.8870   60.8720 C.3     0  <0>0        0.0942
     18  C3        10.2980   36.1000   61.6940 C.3     0  <0>0        0.0241
     19  C2         9.5910   37.1040   60.7820 C.3     0  <0>0        0.0020
     20  C1         8.1070   37.1710   61.1490 C.3     0  <0>0        0.0001
     21  C5        11.6430   34.0160   61.7060 C.ar    0  <0>0       -0.0045
     22  C10       12.9630   34.3760   61.9000 C.ar    0  <0>0       -0.0027
     23  C9        13.7910   33.5800   62.6680 C.ar    0  <0>0       -0.0003
     24  C8        13.3010   32.4190   63.2350 C.ar    0  <0>0       -0.0000
     25  C7        11.9820   32.0550   63.0370 C.ar    0  <0>0       -0.0003
     26  C6        11.1530   32.8540   62.2720 C.ar    0  <0>0       -0.0027
@<TRIPOS>BOND
     1    14    13   ar
     2    14    15   ar
     3    13    12   ar
     4    15    16   ar
     5    16    12   ar
     6    12    11    1
     7     3     2    2
     8    11     6    1
     9    11    10    2
    10     5     2    1
    11     5     6    1
    12     2     1   am
    13     6     7    1
    14    10     8    1
    15     7     8    2
    16     7     9    2
    17     1    17    1
    18     1     4    1
    19    19    20    1
    20    19    18    1
    21    17    18    1
    22    17    21    1
    23    21    22   ar
    24    21    26   ar
    25    22    23   ar
    26    26    25   ar
    27    23    24   ar
    28    25    24   ar
