@<TRIPOS>MOLECULE
ZINC01071879_replica-1.pdb
 24 27 0 0 0
SMALL
GASTEIGER

@<TRIPOS>ATOM
      1  C7         8.1880   35.2560   57.1140 C.3     0  <0>0        0.1460
      2  N1         6.7570   34.9630   57.3690 N.am    0  <0>0       -0.2723
      3  C8         5.9340   36.1860   57.2700 C.3     0  <0>0        0.1637
      4  C9         6.2580   36.8790   55.9170 C.3     0  <0>0        0.0886
      5  S1         8.0910   36.6500   55.9120 S.3     0  <0>0       -0.1145
      6  C10        4.5180   35.6610   57.2600 C.2     0  <0>0        0.2533
      7  O1         3.5020   36.2940   57.0650 O.2     0  <0>0       -0.2723
      8  N2         4.6220   34.3410   57.5160 N.am    0  <0>0       -0.2185
      9  C11        5.9010   33.9590   57.6230 C.2     0  <0>0        0.1487
     10  S2         6.3890   32.3710   58.0390 S.2     0  <0>0       -0.0177
     11  C6         8.8810   35.6870   58.3800 C.ar    0  <0>0        0.0062
     12  C1         8.6840   36.9610   58.8770 C.ar    0  <0>0        0.0005
     13  C2         9.3160   37.3560   60.0410 C.ar    0  <0>0        0.0294
     14  C3        10.1560   36.4760   60.7040 C.ar    0  <0>0        0.1401
     15  C4        10.3580   35.2020   60.2020 C.ar    0  <0>0        0.0294
     16  F1        10.7790   36.8630   61.8390 F       0  <0>0       -0.2042
     17  C5         9.7190   34.8090   59.0410 C.ar    0  <0>0        0.0005
     18  C12        3.5260   33.4760   57.6520 C.ar    0  <0>0        0.0598
     19  C17        2.9690   33.2520   58.9040 C.ar    0  <0>0        0.0162
     20  C16        1.8900   32.4010   59.0360 C.ar    0  <0>0        0.0127
     21  C15        1.3630   31.7710   57.9220 C.ar    0  <0>0        0.0578
     22  C14        1.9160   31.9940   56.6730 C.ar    0  <0>0        0.0127
     23 Cl          0.0060   30.7020   58.0920 Cl      0  <0>0       -0.0822
     24  C13        2.9930   32.8480   56.5350 C.ar    0  <0>0        0.0162
@<TRIPOS>BOND
     1     5     4    1
     2     5     1    1
     3     4     3    1
     4    24    22   ar
     5    24    18   ar
     6    22    21   ar
     7     7     6    2
     8     1     2    1
     9     1    11    1
    10     6     3    1
    11     6     8   am
    12     3     2    1
    13     2     9    1
    14     8     9    1
    15     8    18    1
    16     9    10    2
    17    18    19   ar
    18    21    23    1
    19    21    20   ar
    20    11    12   ar
    21    11    17   ar
    22    12    13   ar
    23    19    20   ar
    24    17    15   ar
    25    13    14   ar
    26    15    14   ar
    27    14    16    1
