@<TRIPOS>MOLECULE
ZINC40960661_replica-1.pdb
 26 27 0 0 0
SMALL
GASTEIGER

@<TRIPOS>ATOM
      1  C3         0.6230   33.2720   57.2170 C.2     0  <0>0        0.2813
      2  O1         1.6030   33.1670   56.5090 O.2     0  <0>0       -0.2695
      3  N1        -0.4690   32.5230   56.9700 N.am    0  <0>0       -0.2029
      4  H5        -1.2530   32.6060   57.5360 H       0  <0>0        0.1774
      5  C2         0.6280   34.2410   58.3710 C.3     0  <0>0        0.2428
      6  C1         1.1100   35.6100   57.8860 C.3     0  <0>0        0.0575
      7  O2         1.5040   33.7620   59.3930 O.3     0  <0>0       -0.4698
      8  C14        0.9270   33.1970   60.4850 C.ar    0  <0>0        0.1421
      9  C19        1.0180   31.8290   60.6900 C.ar    0  <0>0        0.0738
     10  C18        0.4330   31.2570   61.8090 C.ar    0  <0>0        0.1418
     11  C17       -0.2540   32.0530   62.7140 C.ar    0  <0>0        0.0371
     12  C16       -0.3480   33.4160   62.5050 C.ar    0  <0>0        0.0062
     13  C15        0.2400   33.9890   61.3940 C.ar    0  <0>0        0.0371
     14  O3         0.5250   29.9170   62.0150 O.3     0  <0>0       -0.4713
     15  C20       -0.3140   29.0780   61.2180 C.3     0  <0>0        0.2525
     16  N2        -0.4740   31.6220   55.8980 N.2     0  <0>0       -0.1775
     17  C4        -0.6290   30.3530   56.1160 C.2     0  <0>0        0.1176
     18  C5        -0.6340   29.4050   54.9860 C.ar    0  <0>0        0.0207
     19  C10       -1.4290   29.6540   53.8640 C.ar    0  <0>0        0.0013
     20  C9        -1.4260   28.7650   52.8090 C.ar    0  <0>0       -0.0042
     21  C8        -0.6460   27.6240   52.8650 C.ar    0  <0>0       -0.0225
     22  C7         0.1390   27.3670   53.9750 C.ar    0  <0>0       -0.0042
     23  C6         0.1500   28.2490   55.0360 C.ar    0  <0>0        0.0013
     24  C11       -0.6520   26.6550   51.7110 C.3     0  <0>0        0.0224
     25  C12       -0.5770   25.2230   52.2440 C.3     0  <0>0        0.0047
     26  C13       -1.9390   26.8320   50.9040 C.3     0  <0>0        0.0047
@<TRIPOS>BOND
     1    26    24    1
     2    24    25    1
     3    24    21    1
     4    20    21   ar
     5    20    19   ar
     6    21    22   ar
     7    19    18   ar
     8    22    23   ar
     9    18    23   ar
    10    18    17    1
    11    16    17    2
    12    16     3    1
    13     2     1    2
    14     3     1   am
    15     3     4    1
    16     1     5    1
    17     6     5    1
    18     5     7    1
    19     7     8    1
    20     8     9   ar
    21     8    13   ar
    22     9    10   ar
    23    15    14    1
    24    13    12   ar
    25    10    14    1
    26    10    11   ar
    27    12    11   ar
