@<TRIPOS>MOLECULE
ZINC37075581_replica-1.pdb
 19 20 0 0 0
SMALL
GASTEIGER

@<TRIPOS>ATOM
      1  C7        -0.1260   27.0120   53.9460 C.ar    0  <0>0        0.0450
      2  C8         0.0400   25.8920   53.1460 C.ar    0  <0>0        0.0143
      3  C9        -0.5470   25.8400   51.8960 C.ar    0  <0>0        0.0013
      4  C10       -1.3050   26.9030   51.4350 C.ar    0  <0>0        0.0001
      5  C11       -1.4800   28.0250   52.2180 C.ar    0  <0>0        0.0017
      6  C12       -0.8960   28.0880   53.4830 C.ar    0  <0>0        0.0191
      7  N1         0.4660   27.0660   55.2080 N.pl3   0  <0>0       -0.3340
      8  H14        1.3490   27.4550   55.3130 H       0  <0>0        0.1468
      9  C5        -0.2440   26.5370   56.3740 C.3     0  <0>0        0.0690
     10  C6         0.1800   25.0860   56.6140 C.3     0  <0>0        0.0212
     11  C3         0.0980   27.3780   57.6060 C.3     0  <0>0        0.0179
     12  C4         0.4030   26.4540   58.7860 C.3     0  <0>0        0.0017
     13  C2        -1.0910   28.2760   57.9560 C.3     0  <0>0        0.0016
     14  C1        -2.3930   27.4930   57.7700 C.3     0  <0>0        0.0001
     15  C13       -1.0850   29.2850   54.3300 C.ar    0  <0>0        0.0307
     16  S1         0.1350   30.4380   54.9360 S.2     0  <0>0       -0.0864
     17  C16       -0.9640   31.5190   55.8360 C.ar    0  <0>0        0.0354
     18  C15       -2.1720   30.9370   55.6260 C.ar    0  <0>0        0.0075
     19  C14       -2.2410   29.7940   54.8570 C.ar    0  <0>0        0.0070
@<TRIPOS>BOND
     1     4     3   ar
     2     4     5   ar
     3     3     2   ar
     4     5     6   ar
     5     2     1   ar
     6     6     1   ar
     7     6    15    1
     8     1     7    1
     9    15    19   ar
    10    15    16   ar
    11    19    18   ar
    12    16    17   ar
    13     7     8    1
    14     7     9    1
    15    18    17   ar
    16     9    10    1
    17     9    11    1
    18    11    13    1
    19    11    12    1
    20    14    13    1
