@<TRIPOS>MOLECULE
ZINC09408789_replica-1.pdb
 34 38 0 0 0
SMALL
GASTEIGER

@<TRIPOS>ATOM
      1  C9         1.3110   33.5410   57.8640 C.ar    0  <0>0        0.1165
      2  C10        1.2090   32.4730   56.9700 C.ar    0  <0>0        0.0654
      3  C11        0.8370   31.3410   57.7110 C.ar    0  <0>0        0.0661
      4  C12        0.7130   31.7430   59.0570 C.ar    0  <0>0        0.0683
      5  N1         1.0090   33.0770   59.1350 N.ar    0  <0>0       -0.3011
      6  C13        0.9670   33.7170   60.3390 C.ar    0  <0>0        0.0802
      7  C14        0.6260   33.0520   61.4650 C.ar    0  <0>0        0.0190
      8  C15        0.3220   31.6840   61.4130 C.ar    0  <0>0        0.0030
      9  C16        0.3650   31.0320   60.2150 C.ar    0  <0>0        0.0177
     10  C17        0.6120   29.9860   57.1810 C.2     0  <0>0        0.1595
     11  S1         0.8200   28.4050   57.9900 S.3     0  <0>0       -0.0747
     12  C19        0.3360   27.3810   56.6060 C.3     0  <0>0        0.1233
     13  C18        0.0630   28.3360   55.6660 C.2     0  <0>0        0.1208
     14  N2         0.2070   29.6130   55.9740 N.2     0  <0>0       -0.3990
     15  C20       -0.3900   27.9410   54.3090 C.ar    0  <0>0        0.0265
     16  C25       -1.1930   28.8020   53.5630 C.ar    0  <0>0        0.0045
     17  C24       -1.6120   28.4310   52.3010 C.ar    0  <0>0        0.0297
     18  C23       -1.2360   27.2060   51.7760 C.ar    0  <0>0        0.1401
     19  C22       -0.4370   26.3470   52.5140 C.ar    0  <0>0        0.0297
     20  F1        -1.6480   26.8470   50.5410 F       0  <0>0       -0.2042
     21  C21       -0.0090   26.7120   53.7740 C.ar    0  <0>0        0.0045
     22  N3         1.4320   32.5230   55.5990 N.pl3   0  <0>0       -0.3557
     23  H17        1.1620   31.7820   55.0360 H       0  <0>0        0.1424
     24  H18        1.8590   33.3000   55.2060 H       0  <0>0        0.1424
     25  C8         1.6610   34.8630   57.5310 C.2     0  <0>0        0.2156
     26  O2         0.8020   35.6490   57.1670 O.2     0  <0>0       -0.2849
     27  C7         3.0700   35.3000   57.6250 C.ar    0  <0>0        0.0744
     28  C2         3.9090   35.2140   56.5070 C.ar    0  <0>0        0.1418
     29  C3         5.2280   35.6300   56.6050 C.ar    0  <0>0        0.0370
     30  C4         5.7140   36.1180   57.8020 C.ar    0  <0>0        0.0031
     31  C5         4.8870   36.1990   58.9110 C.ar    0  <0>0        0.0003
     32  C6         3.5720   35.7940   58.8300 C.ar    0  <0>0        0.0063
     33  O1         3.4330   34.7300   55.3320 O.3     0  <0>0       -0.4713
     34  C1         4.3440   34.6840   54.2320 C.3     0  <0>0        0.2525
@<TRIPOS>BOND
     1    20    18    1
     2    18    17   ar
     3    18    19   ar
     4    17    16   ar
     5    19    21   ar
     6    16    15   ar
     7    21    15   ar
     8    34    33    1
     9    15    13    1
    10    23    22    1
    11    24    22    1
    12    33    28    1
    13    22     2    1
    14    13    14    2
    15    13    12    1
    16    14    10    2
    17    28    29   ar
    18    28    27   ar
    19    29    30   ar
    20    12    11    1
    21     2     3   ar
    22     2     1   ar
    23    26    25    2
    24    10     3    1
    25    10    11    1
    26    25    27    1
    27    25     1    1
    28    27    32   ar
    29     3     4   ar
    30    30    31   ar
    31     1     5   ar
    32    32    31   ar
    33     4     5   ar
    34     4     9   ar
    35     5     6   ar
    36     9     8   ar
    37     6     7   ar
    38     8     7   ar
