@<TRIPOS>MOLECULE
ZINC43758506_replica-1.pdb
 36 39 0 0 0
SMALL
GASTEIGER

@<TRIPOS>ATOM
      1  C10        8.4130   35.6820   57.6810 C.3     0  <0>0        0.0044
      2  C11        8.1140   36.9570   56.8570 C.3     0  <0>0        0.0004
      3  C12        6.6330   36.8530   56.4080 C.3     0  <0>0        0.0027
      4  C13        6.0190   35.9110   57.4520 C.3     0  <0>0        0.0286
      5  C14        7.1350   34.8450   57.6200 C.3     0  <0>0        0.0068
      6  C15        6.8060   34.0710   58.8880 C.3     0  <0>0        0.0255
      7  C16        5.4300   33.4800   58.6920 C.2     0  <0>0       -0.0324
      8  C17        4.5390   33.9680   57.8740 C.2     0  <0>0       -0.0231
      9  C18        4.7390   35.2240   57.0380 C.3     0  <0>0        0.1031
     10  C19        3.5530   36.1740   57.2240 C.3     0  <0>0        0.0332
     11  C20        2.2430   35.4350   56.9450 C.3     0  <0>0        0.0301
     12  C21        2.0710   34.3120   57.9760 C.3     0  <0>0        0.0949
     13  C22        3.2070   33.2540   57.7610 C.3     0  <0>0        0.0397
     14  C23        3.1200   32.1590   58.8210 C.3     0  <0>0        0.0098
     15  C24        3.2200   32.7800   60.2160 C.3     0  <0>0        0.0441
     16  C25        2.0720   33.7730   60.4090 C.3     0  <0>0        0.1712
     17  C26        2.1810   34.9110   59.3810 C.3     0  <0>0        0.0708
     18  C29        3.0860   32.6220   56.3720 C.3     0  <0>0        0.0064
     19  C30        7.1690   33.9120   56.4080 C.3     0  <0>0        0.0004
     20  C2         8.7350   36.0510   59.1300 C.3     0  <0>0        0.0217
     21  C1         8.9600   37.5610   59.2350 C.3     0  <0>0        0.0047
     22  C3         9.9820   35.3250   59.5670 C.2     0  <0>0       -0.0310
     23  C4        10.2670   35.2220   60.8420 C.2     0  <0>0       -0.0310
     24  C5        11.4500   34.4010   61.2840 C.3     0  <0>0        0.0217
     25  C6        10.9580   33.1360   61.9910 C.3     0  <0>0        0.0047
     26  C7        12.3080   35.2220   62.2490 C.3     0  <0>0        0.0040
     27  C8        11.5210   36.4480   62.7140 C.3     0  <0>0        0.0003
     28  C9        12.6760   34.3620   63.4600 C.3     0  <0>0        0.0003
     29  O4         4.8230   34.8550   55.6600 O.3     0  <0>0       -0.3830
     30  H45        4.7600   33.9030   55.5030 H       0  <0>0        0.2107
     31  O3         0.7900   33.7000   57.8130 O.3     0  <0>0       -0.3863
     32  H44        0.1180   34.2880   57.4410 H       0  <0>0        0.2102
     33  O1         0.8230   33.0930   60.2610 O.3     0  <0>0       -0.4522
     34  C27        0.3930   32.3740   61.3100 C.2     0  <0>0        0.3174
     35  O2         0.2020   31.1860   61.1930 O.2     0  <0>0       -0.2501
     36  C28        0.1500   33.0470   62.6370 C.3     0  <0>0        0.1212
@<TRIPOS>BOND
     1    30    29    1
     2    29     9    1
     3    18    13    1
     4     3     2    1
     5     3     4    1
     6    19     5    1
     7     2     1    1
     8    11    10    1
     9    11    12    1
    10     9    10    1
    11     9     4    1
    12     9     8    1
    13    32    31    1
    14     4     5    1
    15     5     1    1
    16     5     6    1
    17     1    20    1
    18    13     8    1
    19    13    12    1
    20    13    14    1
    21    31    12    1
    22     8     7    2
    23    12    17    1
    24     7     6    1
    25    14    15    1
    26    20    21    1
    27    20    22    1
    28    17    16    1
    29    22    23    2
    30    15    16    1
    31    33    16    1
    32    33    34    1
    33    23    24    1
    34    35    34    2
    35    24    25    1
    36    24    26    1
    37    34    36    1
    38    26    27    1
    39    26    28    1
