@<TRIPOS>MOLECULE
ZINC08323874_replica-1.pdb
 26 28 0 0 0
SMALL
GASTEIGER

@<TRIPOS>ATOM
      1  C11        8.8880   35.4960   58.6790 C.2     0  <0>0        0.2794
      2  N1         8.8820   36.5480   57.8940 N.2     0  <0>0       -0.3564
      3  C12        7.6720   36.6230   57.2830 C.2     0  <0>0        0.2356
      4  C13        6.9200   35.5490   57.7390 C.3     0  <0>0        0.2907
      5  O2         7.6990   34.8660   58.5980 O.2     0  <0>0       -0.4319
      6  C20        7.2500   37.6210   56.3470 C.1     0  <0>0        0.1337
      7  N3         6.9160   38.4130   55.6050 N.1     0  <0>0       -0.1883
      8  N2         5.6280   35.2390   57.3790 N.3     0  <0>0       -0.2592
      9  H12        5.4310   34.9560   56.4720 H       0  <0>0        0.1268
     10  C14        4.5490   35.3360   58.3660 C.3     0  <0>0        0.0573
     11  C19        3.2790   35.8490   57.6840 C.3     0  <0>0        0.0158
     12  C18        2.1520   35.9500   58.7150 C.3     0  <0>0        0.0014
     13  C17        1.8860   34.5690   59.3160 C.3     0  <0>0        0.0001
     14  C16        3.1560   34.0560   59.9980 C.3     0  <0>0        0.0014
     15  C15        4.2830   33.9550   58.9670 C.3     0  <0>0        0.0158
     16  C10       10.0160   35.0700   59.5120 C.2     0  <0>0        0.0717
     17  C9         9.7930   34.3500   60.6300 C.2     0  <0>0        0.0060
     18  C6        10.9250   33.9220   61.4660 C.ar    0  <0>0        0.0004
     19  C5        10.8710   32.7030   62.1520 C.ar    0  <0>0        0.0031
     20  C4        11.9330   32.3070   62.9330 C.ar    0  <0>0        0.0369
     21  C3        13.0590   33.1140   63.0420 C.ar    0  <0>0        0.1386
     22  C8        13.1160   34.3280   62.3670 C.ar    0  <0>0        0.0369
     23  C7        12.0610   34.7310   61.5790 C.ar    0  <0>0        0.0031
     24  O1        14.1030   32.7190   63.8140 O.3     0  <0>0       -0.4755
     25  C2        15.3480   33.3930   63.6160 C.3     0  <0>0        0.2055
     26  C1        15.8360   33.9670   64.9480 C.3     0  <0>0        0.0512
@<TRIPOS>BOND
     1     7     6    3
     2     6     3    1
     3     9     8    1
     4     3     4    1
     5     3     2    2
     6     8     4    1
     7     8    10    1
     8    11    10    1
     9    11    12    1
    10     4     5    1
    11     2     1    2
    12    10    15    1
    13     5     1    1
    14     1    16    1
    15    12    13    1
    16    15    14    1
    17    13    14    1
    18    16    17    2
    19    17    18    1
    20    18    23   ar
    21    18    19   ar
    22    23    22   ar
    23    19    20   ar
    24    22    21   ar
    25    20    21   ar
    26    21    24    1
    27    25    24    1
    28    25    26    1
