@<TRIPOS>MOLECULE
ZINC23243842_replica-1.pdb
 25 26 0 0 0
SMALL
GASTEIGER

@<TRIPOS>ATOM
      1  C6         8.4060   36.1430   57.5000 C.2     0  <0>0        0.1265
      2  C7         7.9300   37.4060   57.2970 C.3     0  <0>0        0.1910
      3  C8         8.0880   38.3650   58.3130 C.1     0  <0>0        0.1980
      4  O2         7.6750   39.5030   58.1650 O.2     0  <0>0       -0.2130
      5  N2         8.7070   38.0000   59.4580 N.2     0  <0>0       -0.2640
      6  C9         9.1620   36.7250   59.6040 C.1     0  <0>0        0.1787
      7  N3         9.0080   35.8320   58.6450 N.2     0  <0>0       -0.3415
      8  S1         9.9690   36.2600   61.1000 S.3     0  <0>0       -0.0127
      9  C10        9.9370   34.4590   60.9270 C.3     0  <0>0        0.1007
     10  C11       11.0910   33.8600   61.6900 C.ar    0  <0>0       -0.0094
     11  C16       10.9340   32.6510   62.3400 C.ar    0  <0>0        0.0089
     12  C15       11.9930   32.1010   63.0420 C.ar    0  <0>0        0.0679
     13  C14       13.2070   32.7630   63.0910 C.ar    0  <0>0        0.0682
     14 Cl         11.7960   30.5820   63.8590 Cl      0  <0>0       -0.0814
     15  C13       13.3620   33.9730   62.4400 C.ar    0  <0>0        0.0120
     16 Cl         14.5360   32.0740   63.9710 Cl      0  <0>0       -0.0814
     17  C12       12.3050   34.5190   61.7350 C.ar    0  <0>0       -0.0025
     18  C5         8.2480   35.0970   56.4260 C.3     0  <0>0        0.1414
     19  C4         6.7830   34.8920   56.1380 C.2     0  <0>0        0.2296
     20  N1         5.9450   34.5330   57.1310 N.am    0  <0>0       -0.3001
     21  H6         6.3320   34.3900   58.1510 H       0  <0>0        0.1498
     22  O1         6.3580   35.0490   55.0130 O.2     0  <0>0       -0.2746
     23  C3         4.5210   34.3320   56.8520 C.3     0  <0>0        0.1161
     24  C2         3.7320   35.4880   57.4110 C.2     0  <0>0       -0.0049
     25  C1         3.9320   35.8820   58.6440 C.2     0  <0>0       -0.0032
@<TRIPOS>BOND
     1    22    19    2
     2    19    18    1
     3    19    20   am
     4    18     1    1
     5    23    20    1
     6    23    24    1
     7    20    21    1
     8     2     1    1
     9     2     3    1
    10    24    25    2
    11     1     7    2
    12     4     3    2
    13     3     5    2
    14     7     6    2
    15     5     6    2
    16     6     8    1
    17     9     8    1
    18     9    10    1
    19    10    17   ar
    20    10    11   ar
    21    17    15   ar
    22    11    12   ar
    23    15    13   ar
    24    12    13   ar
    25    12    14    1
    26    13    16    1
