@<TRIPOS>MOLECULE
ZINC37361643_replica-1.pdb
 22 24 0 0 0
SMALL
GASTEIGER

@<TRIPOS>ATOM
      1  C3        -0.3900   26.6620   52.9560 C.ar    0  <0>0       -0.0066
      2  C4         0.2850   25.8760   53.8650 C.ar    0  <0>0       -0.0028
      3  C5         0.4180   26.2770   55.1860 C.ar    0  <0>0       -0.0002
      4  C6        -0.1270   27.4700   55.6080 C.ar    0  <0>0        0.0016
      5  C7        -0.8120   28.2750   54.7000 C.ar    0  <0>0        0.0198
      6  C8        -0.9420   27.8730   53.3610 C.ar    0  <0>0        0.0527
      7  N1        -1.6520   28.8550   52.7010 N.ar    0  <0>0       -0.3522
      8  H1        -1.8880   28.8290   51.7610 H       0  <0>0        0.1660
      9  C9        -1.9730   29.8590   53.5510 C.ar    0  <0>0        0.0756
     10  C10       -1.5000   29.5750   54.8010 C.ar    0  <0>0        0.0574
     11  C11       -1.6370   30.4070   56.0020 C.2     0  <0>0        0.2000
     12  O1        -2.5120   31.2510   56.0610 O.2     0  <0>0       -0.2864
     13  C12       -0.7130   30.2230   57.1390 C.ar    0  <0>0        0.0770
     14  C17        0.5270   30.8690   57.1470 C.ar    0  <0>0        0.0629
     15  C16        1.3840   30.6960   58.2160 C.ar    0  <0>0        0.0116
     16 Cl          0.9850   31.8900   55.8200 Cl      0  <0>0       -0.0821
     17  C15        1.0230   29.8780   59.2720 C.ar    0  <0>0        0.0032
     18  C14       -0.2000   29.2320   59.2700 C.ar    0  <0>0        0.0298
     19  C13       -1.0710   29.3980   58.2110 C.ar    0  <0>0        0.1440
     20  F1        -2.2640   28.7660   58.2100 F       0  <0>0       -0.2040
     21  C2        -0.5250   26.2130   51.5240 C.3     0  <0>0        0.0278
     22  C1        -0.5850   24.6850   51.4720 C.3     0  <0>0        0.0051
@<TRIPOS>BOND
     1    22    21    1
     2    21     1    1
     3     8     7    1
     4     7     6   ar
     5     7     9   ar
     6     1     6   ar
     7     1     2   ar
     8     6     5   ar
     9     9    10   ar
    10     2     3   ar
    11     5    10   ar
    12     5     4   ar
    13    10    11    1
    14     3     4   ar
    15    16    14    1
    16    11    12    2
    17    11    13    1
    18    13    14   ar
    19    13    19   ar
    20    14    15   ar
    21    20    19    1
    22    19    18   ar
    23    15    17   ar
    24    18    17   ar
