@<TRIPOS>MOLECULE
ZINC00190731_replica-1.pdb
 20 22 0 0 0
SMALL
GASTEIGER

@<TRIPOS>ATOM
      1  C8        12.0770   34.9880   61.9860 C.2     0  <0>0        0.1923
      2  C9        11.5130   36.1540   62.6920 C.2     0  <0>0        0.3738
      3  O1        11.8300   36.5790   63.7870 O.2     0  <0>0       -0.2419
      4  O2        10.5730   36.6520   61.8600 O.3     0  <0>0       -0.3911
      5  C10       10.5290   35.8870   60.7520 C.2     0  <0>0        0.2843
      6  N1        11.3960   34.9140   60.8060 N.2     0  <0>0       -0.3648
      7  C7        13.0750   34.1480   62.4270 C.3     0  <0>0        0.0922
      8  C4        12.7370   32.8300   62.9730 C.ar    0  <0>0       -0.0149
      9  C3        13.7390   32.0080   63.5040 C.ar    0  <0>0       -0.0038
     10  C2        13.4110   30.7730   64.0190 C.ar    0  <0>0       -0.0003
     11  C1        12.0950   30.3410   64.0100 C.ar    0  <0>0       -0.0000
     12  C6        11.0980   31.1440   63.4830 C.ar    0  <0>0       -0.0003
     13  C5        11.4080   32.3820   62.9620 C.ar    0  <0>0       -0.0038
     14  C11        9.6130   36.1210   59.6180 C.ar    0  <0>0        0.0665
     15  C16        9.4510   35.1420   58.6340 C.ar    0  <0>0        0.0063
     16  C15        8.5930   35.3670   57.5770 C.ar    0  <0>0        0.0069
     17  C14        7.8950   36.5590   57.4900 C.ar    0  <0>0        0.0346
     18  C13        8.0520   37.5330   58.4630 C.ar    0  <0>0        0.0069
     19 Br          6.7230   36.8600   56.0370 Br      0  <0>0       -0.0490
     20  C12        8.9010   37.3190   59.5270 C.ar    0  <0>0        0.0063
@<TRIPOS>BOND
     1    19    17    1
     2    17    16   ar
     3    17    18   ar
     4    16    15   ar
     5    18    20   ar
     6    15    14   ar
     7    20    14   ar
     8    14     5    1
     9     5     6    2
    10     5     4    1
    11     6     1    2
    12     4     2    1
    13     1     7    1
    14     1     2    1
    15     7     8    1
    16     2     3    2
    17    13     8   ar
    18    13    12   ar
    19     8     9   ar
    20    12    11   ar
    21     9    10   ar
    22    11    10   ar
