@<TRIPOS>MOLECULE
ZINC06899160_replica-1.pdb
 26 27 0 0 0
SMALL
GASTEIGER

@<TRIPOS>ATOM
      1  O2         9.4330   36.6660   58.7710 O.3     0  <0>0       -0.4397
      2  C2         8.1880   36.5480   58.0790 C.3     0  <0>0        0.2447
      3  C1         8.3720   36.9840   56.6240 C.3     0  <0>0        0.0575
      4  C3         7.7230   35.1150   58.1200 C.2     0  <0>0        0.2664
      5  O1         6.6750   34.8340   58.6610 O.2     0  <0>0       -0.2709
      6  N1         8.4710   34.1480   57.5540 N.am    0  <0>0       -0.2810
      7  H5         9.2750   34.3800   57.0640 H       0  <0>0        0.1550
      8  C4         8.0890   32.8080   57.6770 C.ar    0  <0>0        0.0504
      9  C9         8.5220   32.0570   58.7620 C.ar    0  <0>0        0.0147
     10  C8         8.1380   30.7360   58.8840 C.ar    0  <0>0        0.0013
     11  C7         7.3320   30.1580   57.9200 C.ar    0  <0>0        0.0001
     12  C6         6.9030   30.9010   56.8360 C.ar    0  <0>0        0.0013
     13  C5         7.2790   32.2240   56.7120 C.ar    0  <0>0        0.0147
     14  C10        9.3800   36.7630   60.1140 C.2     0  <0>0        0.3415
     15  O3         8.6420   37.5760   60.6350 O.2     0  <0>0       -0.2449
     16  C11       10.2180   35.8840   60.9500 C.ar    0  <0>0        0.0759
     17  C16       11.0620   36.4350   61.9190 C.ar    0  <0>0        0.0096
     18  C15       11.8380   35.6110   62.7020 C.ar    0  <0>0        0.0374
     19  C14       11.7920   34.2330   62.5220 C.ar    0  <0>0        0.1468
     20  C13       10.9590   33.6810   61.5560 C.ar    0  <0>0        0.0374
     21  C12       10.1750   34.4990   60.7730 C.ar    0  <0>0        0.0096
     22  O4        12.5630   33.4240   63.2920 O.3     0  <0>0       -0.4045
     23  C17       13.9680   33.4210   63.0260 C.3     0  <0>0        0.5753
     24  F1        14.6250   34.2020   63.9830 F       0  <0>0       -0.1328
     25  F2        14.4500   32.1090   63.0850 F       0  <0>0       -0.1328
     26  F3        14.2020   33.9480   61.7520 F       0  <0>0       -0.1328
@<TRIPOS>BOND
     1     3     2    1
     2    13    12   ar
     3    13     8   ar
     4    12    11   ar
     5     7     6    1
     6     6     8    1
     7     6     4   am
     8     8     9   ar
     9    11    10   ar
    10     2     4    1
    11     2     1    1
    12     4     5    2
    13     9    10   ar
    14     1    14    1
    15    14    15    2
    16    14    16    1
    17    21    16   ar
    18    21    20   ar
    19    16    17   ar
    20    20    19   ar
    21    26    23    1
    22    17    18   ar
    23    19    18   ar
    24    19    22    1
    25    23    25    1
    26    23    22    1
    27    23    24    1
