@<TRIPOS>MOLECULE
ZINC06743808_replica-1.pdb
 30 32 0 0 0
SMALL
GASTEIGER

@<TRIPOS>ATOM
      1  C6         7.9680   34.8750   58.2440 C.3     0  <0>0        0.1086
      2  C5         8.6790   36.2280   58.1800 C.3     0  <0>0        0.0314
      3  C4         8.7560   36.6960   56.7260 C.3     0  <0>0        0.0028
      4  C2         8.2950   38.1520   56.6340 C.3     0  <0>0        0.0001
      5  C1         7.0390   38.2340   55.7610 C.3     0  <0>0        0.0000
      6  C3         7.9760   38.6760   58.0350 C.3     0  <0>0        0.0000
      7  C7         6.5770   35.0100   57.6770 C.ar    0  <0>0        0.0021
      8  C12        5.6360   35.7790   58.3350 C.ar    0  <0>0        0.0011
      9  C11        4.3610   35.9040   57.8190 C.ar    0  <0>0        0.0367
     10  C10        4.0260   35.2560   56.6380 C.ar    0  <0>0        0.1387
     11  C9         4.9720   34.4850   55.9800 C.ar    0  <0>0        0.0367
     12  C8         6.2480   34.3680   56.4980 C.ar    0  <0>0        0.0011
     13  O1         2.7720   35.3790   56.1270 O.3     0  <0>0       -0.4714
     14  C13        1.7520   35.8410   57.0150 C.3     0  <0>0        0.2525
     15  C14        7.8830   34.4100   59.6990 C.3     0  <0>0        0.0301
     16  C15        7.9480   32.8830   59.7510 C.3     0  <0>0       -0.0702
     17  N1         6.6430   32.3400   60.2370 N.4     0  <0>0        0.3872
     18  C16        5.8660   33.3950   60.9050 C.3     0  <0>0       -0.0774
     19  C17        4.4270   32.8210   60.8640 C.3     0  <0>0       -0.0250
     20  C18        4.3720   32.1230   59.4860 C.3     0  <0>0       -0.0250
     21  C19        5.8420   31.8510   59.1150 C.3     0  <0>0       -0.0774
     22  H36        6.8230   31.5720   60.8960 H       0  <0>0       -0.0797
     23  C20        9.0360   34.9890   60.4780 C.ar    0  <0>0       -0.0220
     24  C25        8.9190   36.2360   61.0610 C.ar    0  <0>0       -0.0043
     25  C24        9.9760   36.7670   61.7770 C.ar    0  <0>0       -0.0003
     26  C23       11.1500   36.0490   61.9090 C.ar    0  <0>0       -0.0000
     27  C22       11.2670   34.8010   61.3270 C.ar    0  <0>0       -0.0003
     28  C21       10.2080   34.2690   60.6150 C.ar    0  <0>0       -0.0043
     29  O2         8.7020   33.9150   57.4790 O.3     0  <0>0       -0.3824
     30  H35        9.2850   33.3540   58.0070 H       0  <0>0        0.2107
@<TRIPOS>BOND
     1     5     4    1
     2    11    12   ar
     3    11    10   ar
     4    13    10    1
     5    13    14    1
     6    12     7   ar
     7     4     3    1
     8     4     6    1
     9    10     9   ar
    10     3     2    1
    11    29    30    1
    12    29     1    1
    13     7     1    1
    14     7     8   ar
    15     9     8   ar
    16     2     1    1
    17     1    15    1
    18    21    20    1
    19    21    17    1
    20    20    19    1
    21    15    16    1
    22    15    23    1
    23    16    17    1
    24    17    22    1
    25    17    18    1
    26    23    28   ar
    27    23    24   ar
    28    28    27   ar
    29    19    18    1
    30    24    25   ar
    31    27    26   ar
    32    25    26   ar
