@<TRIPOS>MOLECULE
ZINC04740080_replica-1.pdb
 21 23 0 0 0
SMALL
GASTEIGER

@<TRIPOS>ATOM
      1  C7         0.2780   31.2610   55.4830 C.2     0  <0>0        0.2111
      2  N2         0.3190   30.1840   54.7200 N.2     0  <0>0       -0.3842
      3  C8        -0.7150   29.3500   54.6490 C.2     0  <0>0        0.1225
      4  C9        -1.8380   29.6140   55.3810 C.3     0  <0>0        0.1247
      5  S1        -1.3600   31.1370   56.1890 S.3     0  <0>0       -0.0594
      6  N1         1.2470   32.2330   55.6810 N.pl3   0  <0>0       -0.2813
      7  H5         1.9110   32.4010   54.9970 H       0  <0>0        0.1551
      8  C5         1.2630   32.9710   56.8690 C.ar    0  <0>0        0.0783
      9  C4         1.7610   32.4020   58.0370 C.ar    0  <0>0        0.1535
     10  C3         1.7790   33.1370   59.2080 C.ar    0  <0>0        0.0309
     11  F1         2.2310   31.1360   58.0250 F       0  <0>0       -0.2029
     12  C2         1.2940   34.4320   59.2220 C.ar    0  <0>0        0.0024
     13  C1         0.7940   34.9980   58.0630 C.ar    0  <0>0        0.0014
     14  C6         0.7770   34.2720   56.8870 C.ar    0  <0>0        0.0170
     15  C10       -0.6500   28.1460   53.7850 C.ar    0  <0>0        0.0264
     16  C15        0.0230   27.0070   54.2230 C.ar    0  <0>0        0.0031
     17  C14        0.0810   25.8900   53.4150 C.ar    0  <0>0        0.0115
     18  C13       -0.5290   25.8990   52.1720 C.ar    0  <0>0        0.0577
     19  C12       -1.1990   27.0280   51.7330 C.ar    0  <0>0        0.0115
     20 Cl         -0.4530   24.4900   51.1620 Cl      0  <0>0       -0.0822
     21  C11       -1.2670   28.1480   52.5350 C.ar    0  <0>0        0.0031
@<TRIPOS>BOND
     1    20    18    1
     2    19    18   ar
     3    19    21   ar
     4    18    17   ar
     5    21    15   ar
     6    17    16   ar
     7    15    16   ar
     8    15     3    1
     9     3     2    2
    10     3     4    1
    11     2     1    2
    12     7     6    1
    13     4     5    1
    14     1     6    1
    15     1     5    1
    16     6     8    1
    17     8    14   ar
    18     8     9   ar
    19    14    13   ar
    20    11     9    1
    21     9    10   ar
    22    13    12   ar
    23    10    12   ar
