@<TRIPOS>MOLECULE
ZINC11785388_replica-1.pdb
 27 30 0 0 0
SMALL
GASTEIGER

@<TRIPOS>ATOM
      1  N3         6.1040   35.7120   59.0100 N.pl3   0  <0>0       -0.3031
      2  C7         6.7380   36.5670   60.0230 C.3     0  <0>0        0.0923
      3  C8         7.8080   35.8240   60.7940 C.3     0  <0>0        0.0370
      4  C9         9.0790   35.5100   60.0280 C.3     0  <0>0        0.0780
      5  S1         8.7170   34.2820   58.7300 S.3     0  <0>0       -0.1087
      6  C10        7.9560   35.2870   57.4800 C.ar    0  <0>0        0.0388
      7  C11        6.7360   35.8730   57.7630 C.ar    0  <0>0        0.0538
      8  C12        6.1130   36.6470   56.7900 C.ar    0  <0>0        0.0150
      9  C13        6.7230   36.8240   55.5610 C.ar    0  <0>0        0.0013
     10  C14        7.9470   36.2410   55.2910 C.ar    0  <0>0        0.0006
     11  C15        8.5720   35.4660   56.2550 C.ar    0  <0>0        0.0074
     12  C6         4.6650   35.9920   58.9120 C.3     0  <0>0        0.1205
     13  C3         3.8900   34.8640   59.5440 C.ar    0  <0>0        0.0317
     14  C2         2.5520   34.6730   59.4600 C.ar    0  <0>0        0.0552
     15  C1         1.5740   35.5450   58.7170 C.3     0  <0>0        0.0515
     16  N2         2.2530   33.5560   60.1570 N.ar    0  <0>0       -0.2531
     17  N1         3.4430   33.0520   60.6950 N.ar    0  <0>0       -0.1682
     18  C5         0.9180   32.9790   60.3260 C.3     0  <0>0        0.1533
     19  C4         4.4240   33.8360   60.3270 C.ar    0  <0>0        0.1186
     20  C16       10.1120   34.9530   60.9740 C.ar    0  <0>0        0.0155
     21  C21       10.9570   35.8100   61.6590 C.ar    0  <0>0        0.1392
     22  C20       11.9050   35.2980   62.5270 C.ar    0  <0>0        0.0589
     23  F1        10.8560   37.1450   61.4790 F       0  <0>0       -0.2044
     24  C19       12.0070   33.9300   62.7110 C.ar    0  <0>0        0.1424
     25  C18       11.1610   33.0750   62.0250 C.ar    0  <0>0        0.0295
     26  F2        12.9320   33.4290   63.5580 F       0  <0>0       -0.2041
     27  C17       10.2120   33.5870   61.1610 C.ar    0  <0>0        0.0011
@<TRIPOS>BOND
     1    10     9   ar
     2    10    11   ar
     3     9     8   ar
     4    11     6   ar
     5     8     7   ar
     6     6     7   ar
     7     6     5    1
     8     7     1    1
     9    15    14    1
    10     5     4    1
    11    12     1    1
    12    12    13    1
    13     1     2    1
    14    14    13   ar
    15    14    16   ar
    16    13    19   ar
    17     2     3    1
    18     4     3    1
    19     4    20    1
    20    16    18    1
    21    16    17   ar
    22    19    17   ar
    23    20    27   ar
    24    20    21   ar
    25    27    25   ar
    26    23    21    1
    27    21    22   ar
    28    25    24   ar
    29    22    24   ar
    30    24    26    1
