@<TRIPOS>MOLECULE
ZINC35745384_replica-1.pdb
 30 31 0 0 0
SMALL
GASTEIGER

@<TRIPOS>ATOM
      1  N1        -1.6100   29.8180   55.3600 N.4     0  <0>0        0.3945
      2  H34       -0.7870   29.4020   55.7690 H       0  <0>0       -0.0786
      3  C8        -1.4280   29.9420   53.9080 C.3     0  <0>0       -0.0493
      4  C6        -1.1170   28.5890   53.3220 C.ar    0  <0>0       -0.0435
      5  C5        -1.5620   28.2650   52.0550 C.ar    0  <0>0       -0.0063
      6  C4        -1.2760   27.0230   51.5180 C.ar    0  <0>0       -0.0007
      7  C3        -0.5460   26.1050   52.2500 C.ar    0  <0>0       -0.0043
      8  C2        -0.1010   26.4300   53.5180 C.ar    0  <0>0       -0.0222
      9  C1         0.6950   25.4300   54.3150 C.3     0  <0>0        0.0310
     10  C7        -0.3910   27.6700   54.0570 C.ar    0  <0>0       -0.0106
     11  C9        -2.7760   28.9680   55.6370 C.3     0  <0>0       -0.0737
     12  C10       -2.7910   28.5880   57.1190 C.3     0  <0>0        0.0093
     13  C11       -1.8060   27.4430   57.3600 C.3     0  <0>0        0.1401
     14  O1        -0.4940   27.9750   57.5520 O.3     0  <0>0       -0.3512
     15  C12        0.5160   26.9820   57.7370 C.3     0  <0>0        0.1741
     16  C13       -1.8250   31.1500   55.9420 C.3     0  <0>0       -0.0105
     17  C14       -0.5450   31.6330   56.5770 C.ar    0  <0>0        0.1017
     18  O2         0.3370   32.4790   56.0220 O.2     0  <0>0       -0.4612
     19  C17        1.3530   32.6890   56.8740 C.ar    0  <0>0        0.1535
     20  C16        1.1320   31.9650   57.9860 C.ar    0  <0>0        0.0387
     21  C15       -0.0920   31.2850   57.7950 C.ar    0  <0>0        0.0337
     22  C18        2.5420   33.5800   56.6250 C.3     0  <0>0        0.1691
     23  C19        2.1630   35.0130   56.8980 C.2     0  <0>0       -0.0097
     24  C20        1.0280   35.2880   57.4910 C.2     0  <0>0       -0.0061
     25  C21        3.0900   36.1280   56.4890 C.3     0  <0>0        0.0295
     26  C22        3.6720   33.1770   57.5380 C.2     0  <0>0       -0.0097
     27  C23        4.6170   32.3830   57.0990 C.2     0  <0>0       -0.0061
     28  C24        3.7130   33.6870   58.9550 C.3     0  <0>0        0.0295
     29  O3         2.9590   33.4480   55.2640 O.3     0  <0>0       -0.3726
     30  H33        3.1400   32.5380   54.9940 H       0  <0>0        0.2116
@<TRIPOS>BOND
     1     6     5   ar
     2     6     7   ar
     3     5     4   ar
     4     7     8   ar
     5     4     3    1
     6     4    10   ar
     7     8    10   ar
     8     8     9    1
     9     3     1    1
    10    30    29    1
    11    29    22    1
    12     1    11    1
    13     1     2    1
    14     1    16    1
    15    11    12    1
    16    16    17    1
    17    18    17   ar
    18    18    19   ar
    19    25    23    1
    20    17    21   ar
    21    22    19    1
    22    22    23    1
    23    22    26    1
    24    19    20   ar
    25    23    24    2
    26    27    26    2
    27    12    13    1
    28    13    14    1
    29    26    28    1
    30    14    15    1
    31    21    20   ar
