@<TRIPOS>MOLECULE
ZINC04356710_replica-1.pdb
 19 20 0 0 0
SMALL
GASTEIGER

@<TRIPOS>ATOM
      1  C4         8.4160   36.3220   57.9060 C.ar    0  <0>0        0.1434
      2  N1         9.1630   35.3010   57.5970 N.ar    0  <0>0       -0.1328
      3  N2         9.8740   34.9520   58.6110 N.ar    0  <0>0       -0.1224
      4  C5         9.6180   35.7420   59.6270 C.ar    0  <0>0        0.1935
      5  N3         8.6760   36.6380   59.2110 N.ar    0  <0>0       -0.2896
      6  S1        10.3520   35.6600   61.2270 S.3     0  <0>0       -0.0708
      7  C9        10.3790   33.8670   61.4700 C.3     0  <0>0        0.0913
      8  C10       11.6920   33.4630   62.0870 C.ar    0  <0>0       -0.0109
      9  C15       12.8000   34.2780   61.9500 C.ar    0  <0>0       -0.0034
     10  C14       14.0050   33.9070   62.5170 C.ar    0  <0>0       -0.0003
     11  C13       14.1020   32.7220   63.2210 C.ar    0  <0>0       -0.0000
     12  C12       12.9940   31.9060   63.3580 C.ar    0  <0>0       -0.0003
     13  C11       11.7880   32.2800   62.7950 C.ar    0  <0>0       -0.0034
     14  C6         8.0740   37.7180   59.9960 C.3     0  <0>0        0.1356
     15  C7         6.8480   37.2010   60.7040 C.2     0  <0>0       -0.0017
     16  C8         5.6650   37.3540   60.1620 C.2     0  <0>0       -0.0029
     17  C2         7.4440   37.0250   56.9940 C.3     0  <0>0        0.0588
     18  C1         8.0330   38.3670   56.5560 C.3     0  <0>0        0.0080
     19  C3         7.1820   36.1560   55.7610 C.3     0  <0>0        0.0080
@<TRIPOS>BOND
     1    19    17    1
     2    18    17    1
     3    17     1    1
     4     2     1   ar
     5     2     3   ar
     6     1     5   ar
     7     3     4   ar
     8     5     4   ar
     9     5    14    1
    10     4     6    1
    11    14    15    1
    12    16    15    2
    13     6     7    1
    14     7     8    1
    15     9     8   ar
    16     9    10   ar
    17     8    13   ar
    18    10    11   ar
    19    13    12   ar
    20    11    12   ar
