@<TRIPOS>MOLECULE
ZINC00001462_replica-1.pdb
 21 23 0 0 0
SMALL
GASTEIGER

@<TRIPOS>ATOM
      1  C1        10.4350   36.4080   61.1870 C.ar    0  <0>0        0.0001
      2  C2        10.6820   35.1560   60.6520 C.ar    0  <0>0        0.0001
      3  C3        10.0490   34.7520   59.4930 C.ar    0  <0>0        0.0030
      4  C4         9.1590   35.6130   58.8450 C.ar    0  <0>0        0.0382
      5  C5         8.9080   36.8880   59.3890 C.ar    0  <0>0        0.0382
      6  C6         9.5570   37.2730   60.5650 C.ar    0  <0>0        0.0030
      7  C7         7.9410   37.6100   58.5440 C.2     0  <0>0        0.1841
      8  O1         7.5140   38.7290   58.7340 O.2     0  <0>0       -0.2905
      9  C8         7.5770   36.6980   57.3960 C.3     0  <0>0        0.1457
     10  C9         8.3700   35.4310   57.6140 C.2     0  <0>0        0.1841
     11  O2         8.3580   34.4460   56.9080 O.2     0  <0>0       -0.2905
     12  C10        6.1010   36.3980   57.4170 C.ar    0  <0>0       -0.0079
     13  C15        5.3830   36.3740   56.2360 C.ar    0  <0>0       -0.0035
     14  C14        4.0290   36.0980   56.2550 C.ar    0  <0>0        0.0036
     15  C13        3.3910   35.8470   57.4550 C.ar    0  <0>0        0.0714
     16  C12        4.1090   35.8700   58.6360 C.ar    0  <0>0        0.0036
     17  C11        5.4650   36.1410   58.6180 C.ar    0  <0>0       -0.0035
     18  C16        1.9150   35.5490   57.4770 C.3     0  <0>0        0.4186
     19  F1         1.4380   35.6480   58.7890 F       0  <0>0       -0.1659
     20  F2         1.2400   36.4680   56.6660 F       0  <0>0       -0.1659
     21  F3         1.6940   34.2540   56.9970 F       0  <0>0       -0.1659
@<TRIPOS>BOND
     1    13    14   ar
     2    13    12   ar
     3    14    15   ar
     4    20    18    1
     5    11    10    2
     6    21    18    1
     7     9    12    1
     8     9    10    1
     9     9     7    1
    10    12    17   ar
    11    15    18    1
    12    15    16   ar
    13    18    19    1
    14    10     4    1
    15     7     8    2
    16     7     5    1
    17    17    16   ar
    18     4     5   ar
    19     4     3   ar
    20     5     6   ar
    21     3     2   ar
    22     6     1   ar
    23     2     1   ar
