@<TRIPOS>MOLECULE
ZINC37560935_replica-1.pdb
 20 22 0 0 0
SMALL
GASTEIGER

@<TRIPOS>ATOM
      1  C3        10.6840   35.4550   60.7240 C.ar    0  <0>0        0.1405
      2  C4        10.2340   34.9150   59.5830 C.ar    0  <0>0        0.0377
      3  C5         9.3550   35.9190   58.9730 C.ar    0  <0>0        0.0378
      4  C6         8.5960   35.9690   57.8050 C.ar    0  <0>0        0.0098
      5  C7         7.8600   37.0980   57.5190 C.ar    0  <0>0        0.0348
      6  C8         7.8730   38.1800   58.3890 C.ar    0  <0>0        0.0098
      7  C9         8.6190   38.1430   59.5470 C.ar    0  <0>0        0.0380
      8  C10        9.3680   37.0140   59.8540 C.ar    0  <0>0        0.1449
      9  O1        10.1720   36.6870   60.8870 O.2     0  <0>0       -0.4561
     10 Br          6.8280   37.1740   55.9360 Br      0  <0>0       -0.0490
     11  C2        11.6230   34.7780   61.6880 C.3     0  <0>0        0.1284
     12  C1        11.9030   35.7100   62.8680 C.3     0  <0>0        0.0295
     13  N1        11.0100   33.5410   62.1780 N.pl3   0  <0>0       -0.3122
     14  H9        10.0570   33.3950   62.0700 H       0  <0>0        0.1486
     15  C11       11.8000   32.5680   62.8030 C.ar    0  <0>0        0.1501
     16  N3        11.3650   31.4620   63.3570 N.ar    0  <0>0       -0.1543
     17  N2        12.4690   30.7640   63.8660 N.ar    0  <0>0       -0.2462
     18  C13       13.5770   31.4900   63.6080 C.ar    0  <0>0        0.0981
     19  C14       12.4270   29.4760   64.5600 C.3     0  <0>0        0.1538
     20  C12       13.1960   32.6100   62.9520 C.ar    0  <0>0        0.0561
@<TRIPOS>BOND
     1    10     5    1
     2     5     4   ar
     3     5     6   ar
     4     4     3   ar
     5     6     7   ar
     6     3     2   ar
     7     3     8   ar
     8     7     8   ar
     9     2     1   ar
    10     8     9   ar
    11     1     9   ar
    12     1    11    1
    13    11    13    1
    14    11    12    1
    15    14    13    1
    16    13    15    1
    17    15    20   ar
    18    15    16   ar
    19    20    18   ar
    20    16    17   ar
    21    18    17   ar
    22    17    19    1
