@<TRIPOS>MOLECULE
ZINC09225773_replica-1.pdb
 30 34 0 0 0
SMALL
GASTEIGER

@<TRIPOS>ATOM
      1  N1         5.6510   34.2420   59.4240 N.am    0  <0>0       -0.2522
      2  C8         6.2280   33.3930   58.4760 C.ar    0  <0>0        0.0530
      3  C9         6.3260   32.0040   58.4380 C.ar    0  <0>0        0.0147
      4  C10        6.9520   31.3800   57.3800 C.ar    0  <0>0        0.0013
      5  C11        7.4890   32.1260   56.3480 C.ar    0  <0>0       -0.0001
      6  C12        7.3980   33.5070   56.3770 C.ar    0  <0>0       -0.0002
      7  C13        6.7740   34.1350   57.4310 C.ar    0  <0>0        0.0258
      8  C14        6.5050   35.5680   57.7750 C.3     0  <0>0        0.1938
      9  C15        5.7670   35.5420   59.0790 C.2     0  <0>0        0.2599
     10  O1         5.3590   36.4980   59.7020 O.2     0  <0>0       -0.2715
     11  N2         7.7080   36.3940   57.8020 N.am    0  <0>0       -0.2415
     12  C16        7.9230   37.2480   56.8020 C.2     0  <0>0        0.2415
     13  O2         8.9020   37.9620   56.7850 O.2     0  <0>0       -0.2735
     14  C17        6.8940   37.2910   55.6810 C.3     0  <0>0        0.1451
     15  S1         5.4960   36.3780   56.4740 S.3     0  <0>0       -0.1007
     16  C18        8.6180   36.2920   58.8600 C.ar    0  <0>0        0.0553
     17  C23        9.5090   35.2290   58.9110 C.ar    0  <0>0        0.0158
     18  C22       10.4060   35.1320   59.9570 C.ar    0  <0>0        0.0127
     19  C21       10.4170   36.0930   60.9530 C.ar    0  <0>0        0.0578
     20  C20        9.5290   37.1530   60.9040 C.ar    0  <0>0        0.0127
     21 Cl         11.5450   35.9660   62.2660 Cl      0  <0>0       -0.0822
     22  C19        8.6350   37.2590   59.8580 C.ar    0  <0>0        0.0158
     23  C7         4.9900   33.7760   60.6460 C.3     0  <0>0        0.1270
     24  C5         3.5950   33.3120   60.3160 C.ar    0  <0>0        0.0255
     25  C4         3.2600   31.9750   60.4510 C.ar    0  <0>0        0.1377
     26  C3         1.9770   31.5500   60.1470 C.ar    0  <0>0        0.0294
     27  F1         4.1820   31.0870   60.8780 F       0  <0>0       -0.2044
     28  C2         1.0320   32.4610   59.7150 C.ar    0  <0>0        0.0023
     29  C1         1.3700   33.7940   59.5760 C.ar    0  <0>0       -0.0001
     30  C6         2.6500   34.2210   59.8790 C.ar    0  <0>0       -0.0004
@<TRIPOS>BOND
     1    14    15    1
     2    14    12    1
     3     5     6   ar
     4     5     4   ar
     5     6     7   ar
     6    15     8    1
     7    13    12    2
     8    12    11   am
     9     4     3   ar
    10     7     8    1
    11     7     2   ar
    12     8    11    1
    13     8     9    1
    14    11    16    1
    15     3     2   ar
    16     2     1    1
    17    16    17   ar
    18    16    22   ar
    19    17    18   ar
    20     9     1   am
    21     9    10    2
    22     1    23    1
    23    29    28   ar
    24    29    30   ar
    25    28    26   ar
    26    22    20   ar
    27    30    24   ar
    28    18    19   ar
    29    26    25   ar
    30    24    25   ar
    31    24    23    1
    32    25    27    1
    33    20    19   ar
    34    19    21    1
