@<TRIPOS>MOLECULE
ZINC66164400_replica-1.pdb
 21 22 0 0 0
SMALL
GASTEIGER

@<TRIPOS>ATOM
      1  C10       10.7770   35.0550   60.5170 C.3     0  <0>0        0.1312
      2  C8        11.2970   35.0040   61.9550 C.3     0  <0>0        0.1854
      3  C9        11.5230   36.4280   62.4660 C.3     0  <0>0        0.0491
      4  O1        12.5300   34.2830   61.9900 O.3     0  <0>0       -0.4774
      5  C5        12.5340   33.1000   62.6590 C.ar    0  <0>0        0.1384
      6  C4        11.3580   32.3780   62.7990 C.ar    0  <0>0        0.0366
      7  C3        11.3650   31.1750   63.4790 C.ar    0  <0>0       -0.0011
      8  C2        12.5420   30.6900   64.0180 C.ar    0  <0>0       -0.0217
      9  C1        12.5470   29.3780   64.7580 C.3     0  <0>0        0.0310
     10  C7        13.7150   31.4110   63.8830 C.ar    0  <0>0       -0.0011
     11  C6        13.7140   32.6120   63.2000 C.ar    0  <0>0        0.0366
     12  N1         9.4440   35.6650   60.5000 N.pl3   0  <0>0       -0.3297
     13  H14        8.8190   35.4820   61.2190 H       0  <0>0        0.1469
     14  C11        9.0750   36.5090   59.4500 C.ar    0  <0>0        0.0457
     15  C16        8.8850   35.9900   58.1750 C.ar    0  <0>0        0.0280
     16  C15        8.5150   36.8270   57.1380 C.ar    0  <0>0        0.0863
     17  C14        8.3440   38.1830   57.3680 C.ar    0  <0>0        0.1507
     18 Cl          8.2700   36.1790   55.5460 Cl      0  <0>0       -0.0799
     19  C13        8.5390   38.7010   58.6370 C.ar    0  <0>0        0.0318
     20  F1         7.9870   38.9990   56.3520 F       0  <0>0       -0.2033
     21  C12        8.9030   37.8680   59.6770 C.ar    0  <0>0        0.0167
@<TRIPOS>BOND
     1    18    16    1
     2    20    17    1
     3    16    17   ar
     4    16    15   ar
     5    17    19   ar
     6    15    14   ar
     7    19    21   ar
     8    14    21   ar
     9    14    12    1
    10    12     1    1
    11    12    13    1
    12     1     2    1
    13     2     4    1
    14     2     3    1
    15     4     5    1
    16     5     6   ar
    17     5    11   ar
    18     6     7   ar
    19    11    10   ar
    20     7     8   ar
    21    10     8   ar
    22     8     9    1
