@<TRIPOS>MOLECULE
ZINC49880936_replica-1.pdb
 23 24 0 0 0
SMALL
GASTEIGER

@<TRIPOS>ATOM
      1  C11        0.2410   30.7820   55.9670 C.3     0  <0>0        0.1521
      2  C8        -0.1840   29.7700   54.9340 C.ar    0  <0>0        0.0059
      3  C7        -1.1240   30.1100   53.9780 C.ar    0  <0>0       -0.0022
      4  C6        -1.5120   29.1820   53.0310 C.ar    0  <0>0       -0.0045
      5  C5        -0.9620   27.9140   53.0380 C.ar    0  <0>0       -0.0225
      6  C10       -0.0260   27.5730   53.9970 C.ar    0  <0>0       -0.0045
      7  C9         0.3660   28.5020   54.9430 C.ar    0  <0>0       -0.0022
      8  C3        -1.3850   26.9020   52.0050 C.3     0  <0>0        0.0223
      9  C4        -1.8690   27.6290   50.7490 C.3     0  <0>0        0.0047
     10  C2        -0.1960   26.0070   51.6510 C.3     0  <0>0        0.0044
     11  C1        -0.6260   24.5390   51.7130 C.3     0  <0>0        0.0003
     12  C12        0.3530   30.1010   57.3320 C.3     0  <0>0        0.1213
     13  N1        -0.9780   29.9960   57.9370 N.pl3   0  <0>0       -0.3307
     14  H17       -1.5340   30.7850   58.0230 H       0  <0>0        0.1469
     15  C13       -1.4450   28.7600   58.3880 C.ar    0  <0>0        0.0407
     16  C18       -2.4730   28.1160   57.7140 C.ar    0  <0>0       -0.0087
     17  C17       -2.9290   26.8900   58.1590 C.ar    0  <0>0       -0.0030
     18  C19       -3.0890   28.7510   56.4920 C.3     0  <0>0        0.0323
     19  C16       -2.3700   26.3090   59.2820 C.ar    0  <0>0       -0.0002
     20  C15       -1.3490   26.9510   59.9610 C.ar    0  <0>0        0.0012
     21  C14       -0.8850   28.1740   59.5170 C.ar    0  <0>0        0.0140
     22  O1         1.5090   31.3310   55.6030 O.3     0  <0>0       -0.3783
     23  H25        1.4710   32.2560   55.3250 H       0  <0>0        0.2109
@<TRIPOS>BOND
     1     9     8    1
     2    10    11    1
     3    10     8    1
     4     8     5    1
     5     4     5   ar
     6     4     3   ar
     7     5     6   ar
     8     3     2   ar
     9     6     7   ar
    10     2     7   ar
    11     2     1    1
    12    23    22    1
    13    22     1    1
    14     1    12    1
    15    18    16    1
    16    12    13    1
    17    16    17   ar
    18    16    15   ar
    19    13    14    1
    20    13    15    1
    21    17    19   ar
    22    15    21   ar
    23    19    20   ar
    24    21    20   ar
