@<TRIPOS>MOLECULE
ZINC18599691_replica-1.pdb
 33 36 0 0 0
SMALL
GASTEIGER

@<TRIPOS>ATOM
      1  C12        4.4080   35.2820   56.9050 C.2     0  <0>0        0.2137
      2  N2         5.0120   34.7920   58.0260 N.am    0  <0>0       -0.2538
      3  H2         4.5560   34.1190   58.5560 H       0  <0>0        0.1577
      4  C13        6.2260   35.2240   58.4100 C.2     0  <0>0        0.2392
      5  O2         6.7520   34.7760   59.4150 O.2     0  <0>0       -0.2739
      6  C14        6.8930   36.2160   57.6260 C.3     0  <0>0        0.1580
      7  C15        8.1980   36.8340   57.8370 C.2     0  <0>0       -0.0001
      8  C16        8.6280   37.7670   56.9560 C.2     0  <0>0        0.0342
      9  S2         7.2970   37.8620   55.7730 S.3     0  <0>0       -0.0588
     10  C17        6.1990   36.6650   56.4880 C.2     0  <0>0        0.1530
     11  N3         5.0000   36.1970   56.1630 N.2     0  <0>0       -0.3778
     12  S1         2.8160   34.6850   56.4420 S.3     0  <0>0       -0.0585
     13  C10        1.7800   35.6410   57.5760 C.3     0  <0>0        0.1319
     14  C11        0.4260   35.9200   56.9190 C.3     0  <0>0        0.0219
     15  C9         1.5700   34.8570   58.8470 C.2     0  <0>0        0.2362
     16  N1         0.3760   34.2800   59.0930 N.am    0  <0>0       -0.2835
     17  H12       -0.3700   34.4340   58.4930 H       0  <0>0        0.1549
     18  O1         2.4740   34.7470   59.6470 O.2     0  <0>0       -0.2739
     19  C5         0.2160   33.4570   60.2130 C.ar    0  <0>0        0.0463
     20  C4        -0.1630   34.0050   61.4310 C.ar    0  <0>0        0.0140
     21  C3        -0.3200   33.1900   62.5340 C.ar    0  <0>0       -0.0030
     22  C2        -0.1010   31.8280   62.4270 C.ar    0  <0>0       -0.0221
     23  C1        -0.2750   30.9420   63.6330 C.3     0  <0>0        0.0310
     24  C7         0.2770   31.2790   61.2150 C.ar    0  <0>0       -0.0073
     25  C6         0.4300   32.0880   60.1070 C.ar    0  <0>0       -0.0087
     26  C8         0.8360   31.4890   58.7850 C.3     0  <0>0        0.0323
     27  C18        9.0350   36.4520   58.9990 C.ar    0  <0>0       -0.0025
     28  C23        9.7790   35.2730   58.9670 C.ar    0  <0>0        0.0020
     29  C22       10.5610   34.9240   60.0490 C.ar    0  <0>0        0.0296
     30  C21       10.6080   35.7420   61.1650 C.ar    0  <0>0        0.1401
     31  C20        9.8700   36.9140   61.2020 C.ar    0  <0>0        0.0296
     32  F1        11.3750   35.3960   62.2220 F       0  <0>0       -0.2042
     33  C19        9.0850   37.2720   60.1260 C.ar    0  <0>0        0.0020
@<TRIPOS>BOND
     1     9    10    1
     2     9     8    1
     3    11    10    2
     4    11     1    2
     5    12     1    1
     6    12    13    1
     7    10     6    1
     8     1     2    1
     9    14    13    1
    10     8     7    2
    11    13    15    1
    12     6     7    1
    13     6     4    1
    14     7    27    1
    15     2     4   am
    16     2     3    1
    17     4     5    2
    18    17    16    1
    19    26    25    1
    20    15    16   am
    21    15    18    2
    22    28    27   ar
    23    28    29   ar
    24    27    33   ar
    25    16    19    1
    26    29    30   ar
    27    25    19   ar
    28    25    24   ar
    29    33    31   ar
    30    19    20   ar
    31    30    31   ar
    32    30    32    1
    33    24    22   ar
    34    20    21   ar
    35    22    21   ar
    36    22    23    1
