@<TRIPOS>MOLECULE
ZINC33840634_replica-1.pdb
 23 24 0 0 0
SMALL
GASTEIGER

@<TRIPOS>ATOM
      1  C10        8.7230   35.6520   59.5880 C.3     0  <0>0        0.1334
      2  C11        7.2970   35.3220   59.1970 C.3     0  <0>0        0.0361
      3  C12        7.1020   35.7520   57.9910 C.3     0  <0>0        0.0277
      4  C13        8.3810   36.4160   57.4900 C.3     0  <0>0        0.0931
      5  O3         9.4160   35.9120   58.3480 O.3     0  <0>0       -0.3569
      6  C14        8.5560   35.9400   56.0480 C.3     0  <0>0        0.0272
      7  C15        7.3890   36.4090   55.1880 C.3     0  <0>0        0.0024
      8  C16        6.1120   36.6770   55.9650 C.3     0  <0>0        0.0002
      9  C17        5.8930   35.6570   57.0890 C.3     0  <0>0        0.0023
     10  C18        5.7830   34.2470   56.5040 C.3     0  <0>0        0.0001
     11  C19        4.6250   36.0020   57.8720 C.3     0  <0>0        0.0001
     12  C20        8.2870   37.9410   57.5780 C.3     0  <0>0        0.0296
     13  C8         9.3520   34.4820   60.3000 C.2     0  <0>0       -0.0173
     14  C7        10.3990   34.6750   61.1080 C.2     0  <0>0       -0.0062
     15  C9         8.8010   33.0940   60.1010 C.3     0  <0>0        0.0288
     16  C6        10.9910   33.5740   61.7770 C.2     0  <0>0       -0.0009
     17  C5        12.2040   33.7130   62.3700 C.2     0  <0>0       -0.0041
     18  C2        12.7930   32.6200   63.0350 C.2     0  <0>0       -0.0153
     19  C1        14.2780   32.6060   63.2930 C.3     0  <0>0        0.0312
     20  C3        12.0210   31.5770   63.4460 C.2     0  <0>0        0.0819
     21  C4        12.6240   30.4140   63.9620 C.2     0  <0>0        0.3876
     22  O1        12.9440   30.3460   65.2530 O.co2   0  <0>0       -0.2406
     23  O2        12.8750   29.3800   63.1590 O.co2   0  <0>0       -0.2406
@<TRIPOS>BOND
     1     7     8    1
     2     7     6    1
     3     8     9    1
     4     6     4    1
     5    10     9    1
     6     9    11    1
     7     9     3    1
     8     4    12    1
     9     4     3    1
    10     4     5    1
    11     3     2    1
    12     5     1    1
    13     2     1    1
    14     1    13    1
    15    15    13    1
    16    13    14    2
    17    14    16    1
    18    16    17    2
    19    17    18    1
    20    18    19    1
    21    18    20    2
    22    23    21   ar
    23    20    21    1
    24    21    22   ar
