@<TRIPOS>MOLECULE
ZINC13186005_replica-1.pdb
 27 28 0 0 0
SMALL
GASTEIGER

@<TRIPOS>ATOM
      1  S1         8.2930   37.2370   59.8670 S.O2    0  <0>0        0.0602
      2  O1         8.9190   38.4170   59.3810 O.2     0  <0>0       -0.1530
      3  O2         7.2110   37.2730   60.7880 O.2     0  <0>0       -0.1530
      4  N1         7.7570   36.4060   58.5390 N.3     0  <0>0       -0.1808
      5  H22        6.9520   35.8670   58.5960 H       0  <0>0        0.1487
      6  C9         8.4980   36.4840   57.2770 C.3     0  <0>0        0.0755
      7  C8         7.7850   37.4460   56.3260 C.3     0  <0>0        0.0174
      8  C7         6.3670   36.9380   56.0540 C.3     0  <0>0        0.0014
      9  C6         6.4370   35.5490   55.4160 C.3     0  <0>0        0.0001
     10  C11        7.1500   34.5870   56.3680 C.3     0  <0>0        0.0014
     11  C10        8.5680   35.0950   56.6410 C.3     0  <0>0        0.0174
     12  C3         5.0200   35.0410   55.1450 C.3     0  <0>0        0.0000
     13  C4         4.8920   34.6460   53.6720 C.3     0  <0>0        0.0000
     14  C5         4.7380   33.8220   56.0260 C.3     0  <0>0        0.0000
     15  C2         4.0110   36.1470   55.4660 C.3     0  <0>0        0.0000
     16  C1         2.9620   35.6120   56.4430 C.3     0  <0>0        0.0000
     17  C12        9.5600   36.2660   60.6140 C.ar    0  <0>0        0.1219
     18  C17       10.3570   36.8170   61.6020 C.ar    0  <0>0        0.0199
     19  C16       11.3500   36.0640   62.1910 C.ar    0  <0>0        0.0014
     20  C15       11.5510   34.7410   61.7880 C.ar    0  <0>0        0.0003
     21  C14       10.7410   34.1910   60.7880 C.ar    0  <0>0        0.0014
     22  C13        9.7480   34.9550   60.2120 C.ar    0  <0>0        0.0199
     23  C18       12.6090   33.9300   62.4110 C.2     0  <0>0        0.0068
     24  C19       12.3660   32.6460   62.7460 C.2     0  <0>0        0.0861
     25  C20       13.4170   31.8390   63.3660 C.2     0  <0>0        0.3880
     26  O3        14.5140   32.3240   63.5690 O.co2   0  <0>0       -0.2405
     27  O4        13.1700   30.5590   63.7120 O.co2   0  <0>0       -0.2405
@<TRIPOS>BOND
     1    13    12    1
     2    12     9    1
     3    12    15    1
     4    12    14    1
     5     9     8    1
     6     9    10    1
     7    15    16    1
     8     8     7    1
     9     7     6    1
    10    10    11    1
    11    11     6    1
    12     6     4    1
    13     4     5    1
    14     4     1    1
    15     2     1    2
    16     1    17    1
    17     1     3    2
    18    22    17   ar
    19    22    21   ar
    20    17    18   ar
    21    21    20   ar
    22    18    19   ar
    23    20    19   ar
    24    20    23    1
    25    23    24    2
    26    24    25    1
    27    25    26   ar
    28    25    27   ar
