@<TRIPOS>MOLECULE
ZINC67111703_replica-1.pdb
 22 23 0 0 0
SMALL
GASTEIGER

@<TRIPOS>ATOM
      1  C4         0.8320   31.5870   57.1090 C.3     0  <0>0        0.1350
      2  C5        -0.5210   32.0890   56.5990 C.3     0  <0>0        0.0331
      3  C6        -1.1600   31.0200   55.7110 C.3     0  <0>0        0.0241
      4  C7        -1.3950   29.7490   56.5360 C.3     0  <0>0        0.0936
      5  N1        -0.1240   29.3430   57.1490 N.am    0  <0>0       -0.2770
      6  C8         0.6220   30.3240   57.9490 C.3     0  <0>0        0.1228
      7  C9         0.3510   28.0920   56.9800 C.2     0  <0>0        0.2260
      8  O2         1.4020   27.7690   57.4920 O.2     0  <0>0       -0.2749
      9  C10       -0.4240   27.0970   56.1560 C.3     0  <0>0        0.0896
     10  C11        0.4450   26.6090   54.9960 C.3     0  <0>0        0.0314
     11  C12        0.6970   25.1070   55.1430 C.3     0  <0>0        0.0052
     12  C13       -0.2640   26.8730   53.6930 C.ar    0  <0>0       -0.0219
     13  C18       -0.8190   28.1150   53.4470 C.ar    0  <0>0       -0.0020
     14  C17       -1.4660   28.3590   52.2500 C.ar    0  <0>0        0.0293
     15  C16       -1.5670   27.3560   51.3010 C.ar    0  <0>0        0.1401
     16  C15       -1.0150   26.1110   51.5500 C.ar    0  <0>0        0.0293
     17  F1        -2.2030   27.5920   50.1330 F       0  <0>0       -0.2042
     18  C14       -0.3650   25.8710   52.7460 C.ar    0  <0>0       -0.0020
     19  O1         1.4440   32.5980   57.9130 O.3     0  <0>0       -0.3545
     20  C3         0.5350   33.5950   58.3870 C.3     0  <0>0        0.1421
     21  C2         1.0080   34.1100   59.7480 C.3     0  <0>0        0.0321
     22  C1         0.3420   33.2960   60.8600 C.3     0  <0>0        0.0027
@<TRIPOS>BOND
     1    17    15    1
     2    15    16   ar
     3    15    14   ar
     4    16    18   ar
     5    14    13   ar
     6    18    12   ar
     7    13    12   ar
     8    12    10    1
     9    10    11    1
    10    10     9    1
    11     3     4    1
    12     3     2    1
    13     9     7    1
    14     4     5    1
    15     2     1    1
    16     7     5   am
    17     7     8    2
    18     1    19    1
    19     1     6    1
    20     5     6    1
    21    19    20    1
    22    20    21    1
    23    21    22    1
