@<TRIPOS>MOLECULE
ZINC27903638_replica-1.pdb
 26 28 0 0 0
SMALL
GASTEIGER

@<TRIPOS>ATOM
      1  C9        -0.3830   31.5380   55.9440 C.2     0  <0>0        0.1628
      2  S2        -0.6770   30.7990   57.4600 S.2     0  <0>0       -0.0164
      3  N3         0.6270   32.4210   55.8100 N.am    0  <0>0       -0.2621
      4  C10        1.4060   32.7200   56.8690 C.2     0  <0>0        0.2516
      5  O1         1.1970   32.1950   57.9440 O.2     0  <0>0       -0.2697
      6  H7         0.8170   32.8960   54.8370 H       0  <0>0        0.1569
      7  N2        -1.1620   31.2390   54.8860 N.am    0  <0>0       -0.1686
      8  C8        -1.0370   30.0100   54.2610 C.ar    0  <0>0        0.1629
      9  S1        -0.1270   28.5680   54.7950 S.2     0  <0>0       -0.0517
     10  C6        -0.5350   27.5240   53.4160 C.ar    0  <0>0        0.0473
     11  C5        -1.3520   28.3680   52.6310 C.ar    0  <0>0        0.0640
     12  C7        -0.2310   26.2370   53.0500 C.ar    0  <0>0        0.0037
     13  C4        -1.8510   27.8130   51.4300 C.ar    0  <0>0        0.0172
     14  N1        -1.5590   29.6080   53.1250 N.ar    0  <0>0       -0.3348
     15  C3        -1.5430   26.5260   51.0720 C.ar    0  <0>0       -0.0027
     16  C2        -0.7360   25.7260   51.8670 C.ar    0  <0>0       -0.0213
     17  C1        -0.4140   24.3150   51.4490 C.3     0  <0>0        0.0310
     18  H11       -2.1850   30.3230   52.5720 H       0  <0>0        0.1677
     19  C11        2.5130   33.6860   56.7210 C.ar    0  <0>0        0.0647
     20  C16        2.2550   35.0590   56.7580 C.ar    0  <0>0        0.0621
     21  C15        3.2950   35.9580   56.6190 C.ar    0  <0>0        0.0120
     22 Cl          0.6320   35.6350   56.9780 Cl      0  <0>0       -0.0821
     23  C14        4.5880   35.5010   56.4430 C.ar    0  <0>0        0.0067
     24  C13        4.8500   34.1420   56.4060 C.ar    0  <0>0        0.0303
     25  C12        3.8220   33.2340   56.5490 C.ar    0  <0>0        0.0111
     26  I1         6.8140   33.4640   56.1400 I       0  <0>0       -0.0425
@<TRIPOS>BOND
     1    15    13   ar
     2    15    16   ar
     3    13    11   ar
     4    17    16    1
     5    16    12   ar
     6    18    14    1
     7    11    14   ar
     8    11    10   ar
     9    12    10   ar
    10    14     8   ar
    11    10     9   ar
    12     8     9   ar
    13     8     7    2
    14     6     3    1
    15     7     1    1
    16     3     1    1
    17     3     4   am
    18     1     2    2
    19    26    24    1
    20    24    23   ar
    21    24    25   ar
    22    23    21   ar
    23    25    19   ar
    24    21    20   ar
    25    19    20   ar
    26    19     4    1
    27    20    22    1
    28     4     5    2
