@<TRIPOS>MOLECULE
ZINC33025313_replica-1.pdb
 30 32 0 0 0
SMALL
GASTEIGER

@<TRIPOS>ATOM
      1  C7        10.4090   35.7360   60.8250 C.ar    0  <0>0        0.0546
      2  C8         9.9530   37.0400   61.0260 C.ar    0  <0>0        0.0046
      3  C9         9.1590   37.6490   60.0750 C.ar    0  <0>0        0.0014
      4  C10        8.8120   36.9700   58.9210 C.ar    0  <0>0        0.0147
      5  C11        9.2610   35.6710   58.7110 C.ar    0  <0>0        0.0503
      6  C12       10.0550   35.0500   59.6630 C.ar    0  <0>0        0.0192
      7  N2         8.9080   34.9900   57.5430 N.pl3   0  <0>0       -0.2873
      8  H17        9.5210   34.1460   57.1910 H       0  <0>0        0.1546
      9  C13        7.7850   35.3760   56.8280 C.2     0  <0>0        0.1969
     10  N4         6.5780   35.3080   57.3790 N.2     0  <0>0       -0.3352
     11  C16        5.5020   35.6720   56.6960 C.1     0  <0>0        0.0889
     12  N3         5.5880   36.1250   55.4530 N.2     0  <0>0       -0.1822
     13  C15        6.7600   36.2240   54.8440 C.2     0  <0>0        0.1145
     14  C14        7.9070   35.8490   55.5180 C.2     0  <0>0        0.0701
     15  C17        4.1700   35.5790   57.3400 C.ar    0  <0>0        0.0763
     16  C22        3.0380   36.0500   56.6780 C.ar    0  <0>0        0.0406
     17  C21        1.7980   35.9600   57.2840 C.ar    0  <0>0        0.1408
     18  C20        1.6820   35.4010   58.5470 C.ar    0  <0>0        0.0297
     19  F1         0.7010   36.4220   56.6470 F       0  <0>0       -0.2042
     20  C19        2.8040   34.9330   59.2070 C.ar    0  <0>0        0.0030
     21  C18        4.0450   35.0170   58.6100 C.ar    0  <0>0        0.0112
     22  C6        11.2590   35.0830   61.8420 C.2     0  <0>0        0.2459
     23  N1        11.2620   33.7400   61.9570 N.am    0  <0>0       -0.3009
     24  H12       10.6300   33.1310   61.2940 H       0  <0>0        0.1497
     25  O1        11.9570   35.7560   62.5750 O.2     0  <0>0       -0.2701
     26  C5        12.1050   33.0920   62.9640 C.3     0  <0>0        0.0897
     27  C4        11.6430   31.6470   63.1640 C.3     0  <0>0        0.0213
     28  C2        12.8510   30.7660   63.4900 C.3     0  <0>0        0.0017
     29  C1        14.0500   31.6510   63.8370 C.3     0  <0>0        0.0001
     30  C3        12.5190   29.8680   64.6830 C.3     0  <0>0        0.0001
@<TRIPOS>BOND
     1    13    12    1
     2    13    14    2
     3    12    11    2
     4    14     9    1
     5    19    17    1
     6    16    17   ar
     7    16    15   ar
     8    11    15    1
     9    11    10    2
    10     9    10    2
    11     9     7    1
    12     8     7    1
    13    17    18   ar
    14    15    21   ar
    15     7     5    1
    16    18    20   ar
    17    21    20   ar
    18     5     4   ar
    19     5     6   ar
    20     4     3   ar
    21     6     1   ar
    22     3     2   ar
    23     1     2   ar
    24     1    22    1
    25    24    23    1
    26    22    23   am
    27    22    25    2
    28    23    26    1
    29    26    27    1
    30    27    28    1
    31    28    29    1
    32    28    30    1
