@<TRIPOS>MOLECULE
ZINC00407760_replica-1.pdb
 25 28 0 0 0
SMALL
GASTEIGER

@<TRIPOS>ATOM
      1  C9        10.0160   33.6970   60.8960 C.2     0  <0>0        0.1247
      2  C10        9.9700   34.8170   59.8940 C.3     0  <0>0        0.0872
      3  C11        9.1190   34.4360   58.6770 C.3     0  <0>0        0.1387
      4  N1         7.9220   33.7460   59.1580 N.pl3   0  <0>0       -0.1225
      5  C12        7.9090   33.0070   60.3090 C.1     0  <0>0        0.2319
      6  N2         6.7030   32.5140   60.4460 N.2     0  <0>0       -0.2749
      7  C13        5.9360   32.9150   59.4310 C.1     0  <0>0        0.0948
      8  N3         6.6400   33.6720   58.6230 N.2     0  <0>0       -0.1049
      9  C14        4.4860   32.5540   59.2410 C.3     0  <0>0        0.1315
     10  N4         9.0130   32.8850   61.0930 N.2     0  <0>0       -0.3308
     11  C5        11.2440   33.5060   61.6840 C.ar    0  <0>0        0.0261
     12  C4        12.2190   34.5100   61.7210 C.ar    0  <0>0        0.0019
     13  C3        13.3670   34.3230   62.4610 C.ar    0  <0>0       -0.0045
     14  C2        13.5560   33.1470   63.1670 C.ar    0  <0>0       -0.0258
     15  C1        14.8140   32.9510   63.9740 C.3     0  <0>0        0.0307
     16  C7        12.5980   32.1480   63.1310 C.ar    0  <0>0       -0.0257
     17  C6        11.4420   32.3210   62.3990 C.ar    0  <0>0       -0.0023
     18  C8        12.8180   30.8700   63.8980 C.3     0  <0>0        0.0307
     19  C15        8.7230   35.6790   57.9240 C.ar    0  <0>0       -0.0010
     20  C20        8.4720   35.6140   56.5650 C.ar    0  <0>0       -0.0003
     21  C19        8.1040   36.7530   55.8750 C.ar    0  <0>0        0.0294
     22  C18        7.9970   37.9620   56.5410 C.ar    0  <0>0        0.1401
     23  C17        8.2550   38.0280   57.9000 C.ar    0  <0>0        0.0294
     24  F1         7.6430   39.0770   55.8660 F       0  <0>0       -0.2042
     25  C16        8.6170   36.8870   58.5890 C.ar    0  <0>0       -0.0003
@<TRIPOS>BOND
     1    24    22    1
     2    21    22   ar
     3    21    20   ar
     4    22    23   ar
     5    20    19   ar
     6    23    25   ar
     7    19    25   ar
     8    19     3    1
     9     8     4    1
    10     8     7    2
    11     3     4    1
    12     3     2    1
    13     4     5    1
    14     9     7    1
    15     7     6    2
    16     2     1    1
    17     5     6    2
    18     5    10    2
    19     1    10    2
    20     1    11    1
    21    11    12   ar
    22    11    17   ar
    23    12    13   ar
    24    17    16   ar
    25    13    14   ar
    26    16    14   ar
    27    16    18    1
    28    14    15    1
