@<TRIPOS>MOLECULE
ZINC41113276_replica-1.pdb
 22 23 0 0 0
SMALL
GASTEIGER

@<TRIPOS>ATOM
      1  C4         7.4190   37.0990   58.5160 C.3     0  <0>0        0.0986
      2  C2         7.9360   37.2970   57.0900 C.3     0  <0>0        0.0127
      3  C1         6.7500   37.4190   56.1310 C.3     0  <0>0        0.0008
      4  C3         8.7780   38.5720   57.0230 C.3     0  <0>0        0.0008
      5  C5         8.5420   36.6110   59.3940 C.ar    0  <0>0       -0.0137
      6  C10        8.7970   37.2380   60.6000 C.ar    0  <0>0       -0.0007
      7  C9         9.8230   36.7900   61.4090 C.ar    0  <0>0        0.0366
      8  C8        10.6050   35.7170   61.0070 C.ar    0  <0>0        0.1387
      9  C7        10.3500   35.0930   59.7940 C.ar    0  <0>0        0.0366
     10  C6         9.3200   35.5430   58.9900 C.ar    0  <0>0       -0.0007
     11  O1        11.6180   35.2770   61.7990 O.3     0  <0>0       -0.4714
     12  C11       11.6420   33.8820   62.1060 C.3     0  <0>0        0.2525
     13  C12        6.3080   36.0810   58.5110 C.2     0  <0>0        0.2261
     14  O2         6.4450   35.0350   57.9130 O.2     0  <0>0       -0.2748
     15  N1         5.1600   36.3340   59.1720 N.am    0  <0>0       -0.3041
     16  H16        5.0690   37.1470   59.6940 H       0  <0>0        0.1494
     17  C13        4.0510   35.3790   59.1030 C.3     0  <0>0        0.0893
     18  C14        2.8420   36.0500   58.4450 C.3     0  <0>0        0.0196
     19  C18        2.9300   35.9070   56.9150 C.3     0  <0>0        0.0017
     20  C17        1.6800   35.1160   56.4740 C.3     0  <0>0        0.0001
     21  C16        0.6560   35.3600   57.6110 C.3     0  <0>0        0.0001
     22  C15        1.5440   35.3410   58.8800 C.3     0  <0>0        0.0017
@<TRIPOS>BOND
     1     3     2    1
     2    20    19    1
     3    20    21    1
     4    19    18    1
     5     4     2    1
     6     2     1    1
     7    21    22    1
     8    14    13    2
     9    18    22    1
    10    18    17    1
    11    13     1    1
    12    13    15   am
    13     1     5    1
    14    10     5   ar
    15    10     9   ar
    16    17    15    1
    17    15    16    1
    18     5     6   ar
    19     9     8   ar
    20     6     7   ar
    21     8     7   ar
    22     8    11    1
    23    11    12    1
