@<TRIPOS>MOLECULE
ZINC32230386_replica-1.pdb
 25 26 0 0 0
SMALL
GASTEIGER

@<TRIPOS>ATOM
      1  C9         6.8700   33.5940   56.8010 C.3     0  <0>0        0.1735
      2  C8         8.3810   33.8260   56.7600 C.3     0  <0>0        0.1206
      3  N1         8.6610   35.2540   56.9240 N.pl3   0  <0>0       -0.3309
      4  H8         8.5590   35.9370   56.0670 H       0  <0>0        0.1469
      5  C6         9.0580   35.7500   58.1680 C.ar    0  <0>0        0.0403
      6  C5         8.8300   37.0810   58.4920 C.ar    0  <0>0       -0.0088
      7  C4         9.2200   37.5660   59.7250 C.ar    0  <0>0       -0.0034
      8  C20        8.1530   37.9930   57.5010 C.3     0  <0>0        0.0323
      9  C3         9.8410   36.7300   60.6340 C.ar    0  <0>0       -0.0045
     10  C2        10.0740   35.4050   60.3120 C.ar    0  <0>0       -0.0206
     11  C1        10.7500   34.4970   61.3070 C.3     0  <0>0        0.0311
     12  C7         9.6880   34.9130   59.0820 C.ar    0  <0>0        0.0097
     13  C10        6.1810   34.5490   55.8230 C.3     0  <0>0        0.2361
     14  O1         5.8070   35.7460   56.5080 O.3     0  <0>0       -0.4731
     15  C11        4.5610   35.7840   57.0490 C.ar    0  <0>0        0.1346
     16  C16        4.4020   35.9090   58.4210 C.ar    0  <0>0        0.0115
     17  C15        3.1340   35.9470   58.9690 C.ar    0  <0>0       -0.0013
     18  C14        2.0240   35.8610   58.1500 C.ar    0  <0>0       -0.0001
     19  C13        2.1790   35.7370   56.7810 C.ar    0  <0>0        0.0031
     20  C12        3.4440   35.7030   56.2290 C.ar    0  <0>0        0.0366
     21  C17        5.6120   36.0030   59.3140 C.3     0  <0>0        0.0253
     22  C18        5.5380   37.2900   60.1390 C.3     0  <0>0        0.0048
     23  C19        5.6480   34.7960   60.2540 C.3     0  <0>0        0.0048
     24  O2         6.5830   32.2450   56.4300 O.3     0  <0>0       -0.3791
     25  H24        7.2550   31.4330   56.7420 H       0  <0>0        0.2106
@<TRIPOS>BOND
     1    13    14    1
     2    13     1    1
     3     4     3    1
     4    20    19   ar
     5    20    15   ar
     6    24    25    1
     7    24     1    1
     8    14    15    1
     9     2     1    1
    10     2     3    1
    11    19    18   ar
    12     3     5    1
    13    15    16   ar
    14     8     6    1
    15    18    17   ar
    16     5     6   ar
    17     5    12   ar
    18    16    17   ar
    19    16    21    1
    20     6     7   ar
    21    12    10   ar
    22    21    22    1
    23    21    23    1
    24     7     9   ar
    25    10     9   ar
    26    10    11    1
