@<TRIPOS>MOLECULE
ZINC18966300_replica-1.pdb
 26 29 0 0 0
SMALL
GASTEIGER

@<TRIPOS>ATOM
      1  C9        -0.9520   27.8520   57.9230 C.ar    0  <0>0        0.0307
      2  C10       -1.6260   28.2200   59.0420 C.ar    0  <0>0        0.0817
      3  C11       -2.0640   27.2350   59.9540 C.ar    0  <0>0        0.3457
      4  O3        -2.6670   27.5790   60.9540 O.2     0  <0>0       -0.2445
      5  O4        -1.8340   25.9300   59.7450 O.2     0  <0>0       -0.4211
      6  C12       -1.1700   25.4970   58.6520 C.ar    0  <0>0        0.1481
      7  C13       -0.6980   26.4250   57.7070 C.ar    0  <0>0        0.0341
      8  C14       -0.0190   25.9750   56.5730 C.ar    0  <0>0       -0.0017
      9  C15        0.1980   24.6350   56.3900 C.ar    0  <0>0       -0.0259
     10  C16       -0.2570   23.7180   57.3250 C.ar    0  <0>0       -0.0231
     11  C17       -0.9390   24.1430   58.4500 C.ar    0  <0>0        0.0330
     12  C18        0.1130   22.3160   56.8850 C.3     0  <0>0        0.0265
     13  C19        0.4490   22.4380   55.3840 C.3     0  <0>0        0.0093
     14  C20        0.9040   23.9080   55.2640 C.3     0  <0>0        0.0264
     15  C8        -0.4720   28.8820   56.9340 C.3     0  <0>0        0.2357
     16  O2        -1.2650   28.7950   55.7210 O.3     0  <0>0       -0.4404
     17  C7        -0.6300   29.0240   54.5560 C.2     0  <0>0        0.3421
     18  O1         0.2200   29.8900   54.4880 O.2     0  <0>0       -0.2449
     19  C4        -0.9650   28.2240   53.3610 C.ar    0  <0>0        0.0841
     20  C3        -1.9130   28.6920   52.4460 C.ar    0  <0>0        0.0409
     21  C2        -2.2220   27.9390   51.3310 C.ar    0  <0>0        0.0092
     22 Br         -2.7680   30.3530   52.7340 Br      0  <0>0       -0.0488
     23  C1        -1.5960   26.7240   51.1180 C.ar    0  <0>0        0.0301
     24  C6        -0.6560   26.2530   52.0200 C.ar    0  <0>0        0.1404
     25  C5        -0.3340   26.9990   53.1380 C.ar    0  <0>0        0.0366
     26  F1        -0.0500   25.0650   51.8060 F       0  <0>0       -0.2042
@<TRIPOS>BOND
     1    23    21   ar
     2    23    24   ar
     3    21    20   ar
     4    26    24    1
     5    24    25   ar
     6    20    22    1
     7    20    19   ar
     8    25    19   ar
     9    19    17    1
    10    18    17    2
    11    17    16    1
    12    14    13    1
    13    14     9    1
    14    13    12    1
    15    16    15    1
    16     9     8   ar
    17     9    10   ar
    18     8     7   ar
    19    12    10    1
    20    15     1    1
    21    10    11   ar
    22     7     1   ar
    23     7     6   ar
    24     1     2   ar
    25    11     6   ar
    26     6     5   ar
    27     2     3   ar
    28     5     3   ar
    29     3     4    2
