@<TRIPOS>MOLECULE
ZINC02904516_replica-1.pdb
 20 21 0 0 0
SMALL
GASTEIGER

@<TRIPOS>ATOM
      1  C8        10.6940   35.4280   61.2590 C.3     0  <0>0        0.2093
      2  O2        11.9080   35.2730   61.9960 O.3     0  <0>0       -0.4753
      3  C5        12.2250   34.0150   62.4060 C.ar    0  <0>0        0.1388
      4  C4        11.2310   33.0560   62.5310 C.ar    0  <0>0        0.0400
      5  C3        11.5510   31.7780   62.9490 C.ar    0  <0>0        0.0400
      6  C2        12.8680   31.4550   63.2410 C.ar    0  <0>0        0.1389
      7  C7        13.8620   32.4140   63.1150 C.ar    0  <0>0        0.0400
      8  C6        13.5410   33.6900   62.6940 C.ar    0  <0>0        0.0400
      9  O1        13.1840   30.1980   63.6510 O.3     0  <0>0       -0.4714
     10  C1        12.1610   29.4580   64.3220 C.3     0  <0>0        0.2525
     11  C9         9.9870   36.7080   61.7060 C.3     0  <0>0        0.0946
     12  C10        8.7430   36.9320   60.8440 C.3     0  <0>0        0.2093
     13  O3         9.0250   37.9180   59.8480 O.3     0  <0>0       -0.4753
     14  C11        8.6690   37.6230   58.5700 C.ar    0  <0>0        0.1387
     15  C16        8.8190   36.3310   58.0860 C.ar    0  <0>0        0.0392
     16  C15        8.4580   36.0330   56.7870 C.ar    0  <0>0        0.0327
     17  C14        7.9450   37.0230   55.9660 C.ar    0  <0>0        0.1403
     18  C13        7.7940   38.3130   56.4470 C.ar    0  <0>0        0.0327
     19  F1         7.5910   36.7310   54.6960 F       0  <0>0       -0.2042
     20  C12        8.1550   38.6140   57.7460 C.ar    0  <0>0        0.0392
@<TRIPOS>BOND
     1    19    17    1
     2    17    18   ar
     3    17    16   ar
     4    18    20   ar
     5    16    15   ar
     6    20    14   ar
     7    15    14   ar
     8    14    13    1
     9    13    12    1
    10    12    11    1
    11     1    11    1
    12     1     2    1
    13     2     3    1
    14     3     4   ar
    15     3     8   ar
    16     4     5   ar
    17     8     7   ar
    18     5     6   ar
    19     7     6   ar
    20     6     9    1
    21     9    10    1
