@<TRIPOS>MOLECULE
ZINC34994355_replica-1.pdb
 21 23 0 0 0
SMALL
GASTEIGER

@<TRIPOS>ATOM
      1  C7        -0.8210   29.0180   53.8520 C.ar    0  <0>0        0.0291
      2  C8        -1.4980   30.2000   53.7200 C.ar    0  <0>0        0.0066
      3  C9        -1.2770   31.1970   54.6440 C.ar    0  <0>0        0.0006
      4  C10       -0.3970   30.9780   55.6560 C.ar    0  <0>0       -0.0142
      5  S1         0.1500   29.3120   55.3210 S.2     0  <0>0       -0.0934
      6  C11        0.0090   31.9020   56.7740 C.3     0  <0>0       -0.0469
      7  N1         0.3900   33.2070   56.2180 N.4     0  <0>0        0.3916
      8  H10        0.8020   33.0760   55.3050 H       0  <0>0       -0.0834
      9  H16       -0.4300   33.7900   56.1370 H       0  <0>0       -0.0834
     10  C12        1.3650   33.8530   57.1070 C.3     0  <0>0       -0.0148
     11  C13        2.4820   34.4420   56.2840 C.ar    0  <0>0        0.1017
     12  O1         3.2080   33.7870   55.3630 O.2     0  <0>0       -0.4568
     13  C16        4.1110   34.6230   54.8260 C.ar    0  <0>0        0.1790
     14  C15        3.9750   35.8270   55.4120 C.ar    0  <0>0        0.0434
     15  C14        2.9250   35.7090   56.3520 C.ar    0  <0>0        0.0340
     16  C4        -0.8820   27.8080   53.0030 C.ar    0  <0>0        0.0060
     17  C3        -0.2290   26.6400   53.3980 C.ar    0  <0>0        0.0005
     18  C2        -0.2920   25.5160   52.6010 C.ar    0  <0>0        0.0000
     19  C1        -0.9990   25.5450   51.4130 C.ar    0  <0>0        0.0000
     20  C6        -1.6490   26.6990   51.0150 C.ar    0  <0>0        0.0000
     21  C5        -1.5950   27.8310   51.8020 C.ar    0  <0>0        0.0005
@<TRIPOS>BOND
     1    20    19   ar
     2    20    21   ar
     3    19    18   ar
     4    21    16   ar
     5    18    17   ar
     6    16    17   ar
     7    16     1    1
     8     2     1   ar
     9     2     3   ar
    10     1     5   ar
    11     3     4   ar
    12    13    12   ar
    13    13    14   ar
    14     8     7    1
    15     5     4   ar
    16    12    11   ar
    17    14    15   ar
    18     4     6    1
    19     9     7    1
    20     7     6    1
    21     7    10    1
    22    11    15   ar
    23    11    10    1
