@<TRIPOS>MOLECULE
ZINC24751526_replica-1.pdb
 27 30 0 0 0
SMALL
GASTEIGER

@<TRIPOS>ATOM
      1  C12        0.8800   32.6780   56.7170 C.3     0  <0>0        0.1533
      2  C13        1.0660   33.8650   57.4770 C.2     0  <0>0        0.2491
      3  O1         0.3500   34.2690   58.3770 O.2     0  <0>0       -0.2727
      4  N1         2.1830   34.4590   57.0150 N.am    0  <0>0       -0.2329
      5  C14        2.7040   33.7230   56.0190 C.2     0  <0>0        0.1411
      6  S2         4.1260   34.1140   55.1490 S.2     0  <0>0       -0.0182
      7  N2         1.9460   32.6300   55.8110 N.am    0  <0>0       -0.3096
      8  H13        2.2270   31.9060   55.0330 H       0  <0>0        0.1488
      9  C11       -0.1290   31.7690   56.8480 C.3     0  <0>0        0.0619
     10  C10       -0.4620   30.9240   55.7670 C.ar    0  <0>0        0.0094
     11  C9        -1.2680   31.1920   54.6640 C.ar    0  <0>0        0.0027
     12  C8        -1.4450   30.2120   53.7300 C.ar    0  <0>0        0.0067
     13  C7        -0.8230   28.9870   53.9210 C.ar    0  <0>0        0.0313
     14  S1         0.0430   29.2400   55.4620 S.2     0  <0>0       -0.0911
     15  C5        -0.8640   27.7830   53.0670 C.ar    0  <0>0        0.0335
     16  C4        -1.5890   27.7960   51.8710 C.ar    0  <0>0        0.1406
     17  C3        -1.6230   26.6650   51.0770 C.ar    0  <0>0        0.0297
     18  F1        -2.2480   28.9110   51.4890 F       0  <0>0       -0.2042
     19  C2        -0.9430   25.5240   51.4650 C.ar    0  <0>0        0.0023
     20  C1        -0.2260   25.5070   52.6480 C.ar    0  <0>0        0.0002
     21  C6        -0.1820   26.6270   53.4500 C.ar    0  <0>0        0.0027
     22  C15        2.7420   35.7150   57.5190 C.3     0  <0>0        0.1641
     23  C16        3.7340   35.4190   58.6160 C.ar    0  <0>0        0.1434
     24  O2         3.6760   34.3830   59.4680 O.2     0  <0>0       -0.4529
     25  C19        4.7240   34.4340   60.3060 C.ar    0  <0>0        0.1792
     26  C18        5.4650   35.5130   59.9960 C.ar    0  <0>0        0.0435
     27  C17        4.8300   36.1440   58.9010 C.ar    0  <0>0        0.0380
@<TRIPOS>BOND
     1    17    19   ar
     2    17    16   ar
     3    19    20   ar
     4    18    16    1
     5    16    15   ar
     6    20    21   ar
     7    15    21   ar
     8    15    13    1
     9    12    13   ar
    10    12    11   ar
    11    13    14   ar
    12    11    10   ar
    13     8     7    1
    14     6     5    2
    15    14    10   ar
    16    10     9    1
    17     7     5    1
    18     7     1    1
    19     5     4    1
    20     1     9    1
    21     1     2    1
    22     4     2   am
    23     4    22    1
    24     2     3    2
    25    22    23    1
    26    23    27   ar
    27    23    24   ar
    28    27    26   ar
    29    24    25   ar
    30    26    25   ar
