@<TRIPOS>MOLECULE
ZINC58467303_replica-1.pdb
 27 28 0 0 0
SMALL
GASTEIGER

@<TRIPOS>ATOM
      1  N1        -0.2500   32.2770   55.5950 N.am    0  <0>0       -0.2906
      2  C11        0.1480   32.9950   56.6630 C.2     0  <0>0        0.3010
      3  O1         0.2340   32.4640   57.7540 O.2     0  <0>0       -0.2528
      4  N2         0.4500   34.3020   56.5240 N.am    0  <0>0       -0.2849
      5  H14       -0.3190   32.7010   54.7240 H       0  <0>0        0.1509
      6  H15        0.3800   34.7250   55.6540 H       0  <0>0        0.1513
      7  C2        -0.5770   30.8570   55.7460 C.3     0  <0>0        0.0734
      8  C1        -2.0890   30.6990   55.9220 C.3     0  <0>0        0.0213
      9  C3        -0.1260   30.0940   54.4990 C.3     0  <0>0        0.0243
     10  C4        -1.3490   29.7070   53.6670 C.3     0  <0>0        0.0280
     11  C5        -1.1190   28.3600   53.0310 C.ar    0  <0>0       -0.0221
     12  C10       -0.3530   27.4100   53.6820 C.ar    0  <0>0       -0.0043
     13  C9        -0.1460   26.1730   53.1010 C.ar    0  <0>0       -0.0003
     14  C8        -0.6950   25.8900   51.8640 C.ar    0  <0>0       -0.0000
     15  C7        -1.4550   26.8420   51.2100 C.ar    0  <0>0       -0.0003
     16  C6        -1.6670   28.0770   51.7940 C.ar    0  <0>0       -0.0043
     17  C12        0.8820   35.0810   57.6860 C.3     0  <0>0        0.1177
     18  C13        2.3380   35.4410   57.5360 C.ar    0  <0>0       -0.0025
     19  C18        2.8970   35.5490   56.2760 C.ar    0  <0>0       -0.0027
     20  C17        4.2310   35.8830   56.1380 C.ar    0  <0>0        0.0036
     21  C16        5.0090   36.1000   57.2600 C.ar    0  <0>0        0.0714
     22  C15        4.4510   35.9870   58.5200 C.ar    0  <0>0        0.0036
     23  C14        3.1160   35.6570   58.6570 C.ar    0  <0>0       -0.0027
     24  C19        6.4650   36.4610   57.1100 C.3     0  <0>0        0.4186
     25  F1         6.6130   37.3740   56.0610 F       0  <0>0       -0.1659
     26  F2         6.9270   37.0370   58.2980 F       0  <0>0       -0.1659
     27  F3         7.2040   35.3070   56.8320 F       0  <0>0       -0.1659
@<TRIPOS>BOND
     1    15    16   ar
     2    15    14   ar
     3    16    11   ar
     4    14    13   ar
     5    11    10    1
     6    11    12   ar
     7    13    12   ar
     8    10     9    1
     9     9     7    1
    10     5     1    1
    11     1     7    1
    12     1     2   am
    13     6     4    1
    14     7     8    1
    15    25    24    1
    16    20    19   ar
    17    20    21   ar
    18    19    18   ar
    19     4     2   am
    20     4    17    1
    21     2     3    2
    22    27    24    1
    23    24    21    1
    24    24    26    1
    25    21    22   ar
    26    18    17    1
    27    18    23   ar
    28    22    23   ar
