@<TRIPOS>MOLECULE
ZINC13739084_replica-1.pdb
 29 32 0 0 0
SMALL
GASTEIGER

@<TRIPOS>ATOM
      1  C6        10.1110   35.7060   59.9410 C.ar    0  <0>0        0.1456
      2  C7        10.0750   36.5670   61.0320 C.ar    0  <0>0        0.0406
      3  C8        10.9220   36.0300   61.9970 C.ar    0  <0>0        0.0406
      4  C9        11.4480   34.8670   61.4730 C.ar    0  <0>0        0.1453
      5  O2        10.9450   34.6850   60.2390 O.2     0  <0>0       -0.4535
      6  C5         9.4030   35.8660   58.7430 C.2     0  <0>0        0.0433
      7  C4         8.1670   35.2440   58.5760 C.2     0  <0>0        0.0736
      8  C2         7.2900   35.2980   57.4000 C.2     0  <0>0        0.0818
      9  C3         7.4560   34.3930   59.5390 C.2     0  <0>0        0.2729
     10  C1         7.5600   36.0510   56.1230 C.3     0  <0>0        0.0539
     11  N1         6.2410   34.5750   57.6570 N.2     0  <0>0       -0.1755
     12  N2         6.3110   34.0180   58.9340 N.am    0  <0>0       -0.1552
     13  O1         7.8290   34.0830   60.6590 O.2     0  <0>0       -0.2678
     14  C17        5.3350   33.1920   59.5030 C.ar    0  <0>0        0.0771
     15  C22        5.4280   31.8120   59.3720 C.ar    0  <0>0        0.0168
     16  C21        4.4670   31.0000   59.9400 C.ar    0  <0>0        0.0013
     17  C20        3.4060   31.5580   60.6290 C.ar    0  <0>0        0.0001
     18  C19        3.3070   32.9310   60.7560 C.ar    0  <0>0        0.0013
     19  C18        4.2690   33.7490   60.1970 C.ar    0  <0>0        0.0168
     20  C10       12.4000   33.9690   62.1530 C.ar    0  <0>0        0.0345
     21  C15       11.9700   32.7360   62.6500 C.ar    0  <0>0        0.0069
     22  C14       12.8670   31.8990   63.2800 C.ar    0  <0>0        0.0715
     23  C13       14.1880   32.2830   63.4320 C.ar    0  <0>0        0.0039
     24  C12       14.6200   33.5060   62.9480 C.ar    0  <0>0        0.0000
     25  C11       13.7350   34.3510   62.3100 C.ar    0  <0>0        0.0030
     26  C16       12.4070   30.5660   63.8100 C.3     0  <0>0        0.4186
     27  F1        11.0100   30.4990   63.7550 F       0  <0>0       -0.1659
     28  F2        12.9540   29.5400   63.0310 F       0  <0>0       -0.1659
     29  F3        12.8290   30.4190   65.1360 F       0  <0>0       -0.1659
@<TRIPOS>BOND
     1    10     8    1
     2     8    11    2
     3     8     7    1
     4    11    12    1
     5     7     6    2
     6     7     9    1
     7     6     1    1
     8    12    14    1
     9    12     9   am
    10    15    14   ar
    11    15    16   ar
    12    14    19   ar
    13     9    13    2
    14    16    17   ar
    15     1     5   ar
    16     1     2   ar
    17    19    18   ar
    18     5     4   ar
    19    17    18   ar
    20     2     3   ar
    21     4     3   ar
    22     4    20    1
    23    20    25   ar
    24    20    21   ar
    25    25    24   ar
    26    21    22   ar
    27    24    23   ar
    28    28    26    1
    29    22    23   ar
    30    22    26    1
    31    27    26    1
    32    26    29    1
