@<TRIPOS>MOLECULE
ZINC49927744_replica-1.pdb
 25 26 0 0 0
SMALL
GASTEIGER

@<TRIPOS>ATOM
      1  C9        -1.2940   31.1770   55.3940 C.3     0  <0>0        0.1550
      2  C8        -0.5370   30.4370   54.2900 C.3     0  <0>0        0.1214
      3  N1        -1.4960   29.7960   53.3850 N.pl3   0  <0>0       -0.3304
      4  H9        -2.3050   30.2660   53.1250 H       0  <0>0        0.1469
      5  C5        -1.2450   28.5120   52.8980 C.ar    0  <0>0        0.0447
      6  C4        -0.4920   27.6170   53.6490 C.ar    0  <0>0        0.0140
      7  C3        -0.2470   26.3480   53.1640 C.ar    0  <0>0       -0.0030
      8  C2        -0.7500   25.9660   51.9340 C.ar    0  <0>0       -0.0218
      9  C1        -0.4790   24.5790   51.4090 C.3     0  <0>0        0.0310
     10  C7        -1.4950   26.8560   51.1810 C.ar    0  <0>0       -0.0030
     11  C6        -1.7490   28.1250   51.6620 C.ar    0  <0>0        0.0140
     12  C10       -0.9670   30.5590   56.7280 C.ar    0  <0>0        0.0396
     13  C15       -0.1520   31.2340   57.6260 C.ar    0  <0>0        0.1370
     14  C14        0.1430   30.6640   58.8560 C.ar    0  <0>0        0.0363
     15  C13       -0.3660   29.4210   59.1800 C.ar    0  <0>0       -0.0012
     16  C12       -1.1740   28.7480   58.2820 C.ar    0  <0>0       -0.0228
     17  C11       -1.4740   29.3160   57.0580 C.ar    0  <0>0       -0.0032
     18  O1         0.3530   32.4530   57.3020 O.3     0  <0>0       -0.4717
     19  C16        1.6800   32.7440   57.7440 C.3     0  <0>0        0.2525
     20  C17       -1.7290   27.3930   58.6390 C.3     0  <0>0        0.0189
     21  C18       -3.0940   27.2100   57.9720 C.3     0  <0>0        0.0044
     22  C19       -0.7720   26.3050   58.1490 C.3     0  <0>0        0.0044
     23  C20       -1.8850   27.2910   60.1570 C.3     0  <0>0        0.0044
     24  O2        -2.7000   31.0800   55.1560 O.3     0  <0>0       -0.3782
     25  H27       -2.9510   30.3470   54.5770 H       0  <0>0        0.2109
@<TRIPOS>BOND
     1    10    11   ar
     2    10     8   ar
     3     9     8    1
     4    11     5   ar
     5     8     7   ar
     6     5     3    1
     7     5     6   ar
     8     4     3    1
     9     7     6   ar
    10     3     2    1
    11     2     1    1
    12    25    24    1
    13    24     1    1
    14     1    12    1
    15    12    17   ar
    16    12    13   ar
    17    17    16   ar
    18    18    13    1
    19    18    19    1
    20    13    14   ar
    21    21    20    1
    22    22    20    1
    23    16    20    1
    24    16    15   ar
    25    20    23    1
    26    14    15   ar
