@<TRIPOS>MOLECULE
ZINC04984205_replica-1.pdb
 27 29 0 0 0
SMALL
GASTEIGER

@<TRIPOS>ATOM
      1  C12        8.9550   35.7290   58.9490 C.3     0  <0>0       -0.0153
      2  C11        9.9010   35.6250   60.1180 C.ar    0  <0>0        0.1015
      3  C10       10.1200   36.5850   61.0380 C.ar    0  <0>0        0.0339
      4  C9        11.0700   36.0760   61.9470 C.ar    0  <0>0        0.0402
      5  C8        11.3800   34.8200   61.5260 C.ar    0  <0>0        0.1444
      6  O1        10.6680   34.5620   60.4140 O.2     0  <0>0       -0.4599
      7  C3        12.3390   33.9010   62.1750 C.ar    0  <0>0        0.0314
      8  C2        11.9030   32.6730   62.6770 C.ar    0  <0>0       -0.0083
      9  C1        10.4530   32.2820   62.5580 C.3     0  <0>0        0.0320
     10  C7        12.8030   31.8190   63.2810 C.ar    0  <0>0        0.0538
     11  C6        14.1360   32.1790   63.3910 C.ar    0  <0>0        0.0111
     12 Cl         12.2640   30.2920   63.9050 Cl      0  <0>0       -0.0826
     13  C5        14.5730   33.3950   62.8970 C.ar    0  <0>0        0.0009
     14  C4        13.6840   34.2560   62.2900 C.ar    0  <0>0        0.0028
     15  N3         9.4240   34.8390   57.8690 N.4     0  <0>0        0.3886
     16  H20        9.4490   33.8730   58.2140 H       0  <0>0       -0.0839
     17  H21       10.3680   35.1250   57.5810 H       0  <0>0       -0.0839
     18  C13        8.5160   34.9190   56.7100 C.3     0  <0>0       -0.0802
     19  C14        8.4700   36.3630   56.2080 C.3     0  <0>0       -0.0106
     20  C15        7.0570   36.6890   55.7200 C.3     0  <0>0        0.0703
     21  S1         6.1100   35.1560   55.5450 S.3     0  <0>0       -0.0429
     22  C16        4.7680   35.5000   56.6340 C.1     0  <0>0        0.0599
     23  N2         3.5890   35.8270   56.1240 N.2     0  <0>0       -0.2099
     24  C19        2.5610   36.0900   56.9140 C.3     0  <0>0        0.1645
     25  C18        2.7290   36.0210   58.2890 C.2     0  <0>0        0.0223
     26  C17        3.9750   35.6750   58.7870 C.2     0  <0>0        0.1075
     27  N1         4.9600   35.4180   57.9430 N.2     0  <0>0       -0.1876
@<TRIPOS>BOND
     1    21    20    1
     2    21    22    1
     3    20    19    1
     4    23    22    2
     5    23    24    1
     6    19    18    1
     7    22    27    2
     8    18    15    1
     9    24    25    1
    10    17    15    1
    11    15    16    1
    12    15     1    1
    13    27    26    1
    14    25    26    2
    15     1     2    1
    16     2     6   ar
    17     2     3   ar
    18     6     5   ar
    19     3     4   ar
    20     5     4   ar
    21     5     7    1
    22     7    14   ar
    23     7     8   ar
    24    14    13   ar
    25     9     8    1
    26     8    10   ar
    27    13    11   ar
    28    10    11   ar
    29    10    12    1
