@<TRIPOS>MOLECULE
ZINC43560520_replica-1.pdb
 22 25 0 0 0
SMALL
GASTEIGER

@<TRIPOS>ATOM
      1  C7        -1.2720   29.0220   55.1210 C.1     0  <0>0        0.1273
      2  N1        -0.3720   29.8920   55.6040 N.2     0  <0>0       -0.3122
      3  C8        -0.7200   30.2720   56.8120 C.2     0  <0>0        0.2994
      4  O1        -1.8670   29.6460   57.1350 O.2     0  <0>0       -0.3152
      5  N2        -2.2100   28.8410   56.0180 N.2     0  <0>0       -0.0072
      6  C9         0.0180   31.2230   57.6670 C.3     0  <0>0        0.1385
      7  C15        0.3410   32.5760   57.1630 C.2     0  <0>0        0.0843
      8  S1         1.1710   33.3400   58.5510 S.3     0  <0>0       -0.1003
      9  N3         0.0820   33.0880   55.9920 N.2     0  <0>0       -0.2961
     10  C14        1.2770   31.8700   59.6270 C.3     0  <0>0        0.0539
     11  C10        0.3960   30.8620   58.8810 C.3     0  <0>0        0.0265
     12  C13        0.5040   32.0480   60.9430 C.3     0  <0>0        0.0112
     13  C11        0.1520   29.8070   59.9600 C.3     0  <0>0        0.0018
     14  C12        0.1300   30.5830   61.2960 C.3     0  <0>0        0.0009
     15  H12        0.3520   33.9970   55.7890 H       0  <0>0        0.1870
     16  C5        -1.2150   28.3740   53.7870 C.ar    0  <0>0        0.0832
     17  C4        -0.4840   27.2000   53.6100 C.ar    0  <0>0        0.0450
     18  C3        -0.4350   26.6020   52.3660 C.ar    0  <0>0        0.0074
     19 Br          0.4390   26.4310   55.0700 Br      0  <0>0       -0.0483
     20  C2        -1.1100   27.1630   51.2980 C.ar    0  <0>0        0.0005
     21  C1        -1.8380   28.3280   51.4690 C.ar    0  <0>0        0.0007
     22  C6        -1.8940   28.9350   52.7070 C.ar    0  <0>0        0.0116
@<TRIPOS>BOND
     1    20    21   ar
     2    20    18   ar
     3    21    22   ar
     4    18    17   ar
     5    22    16   ar
     6    17    16   ar
     7    17    19    1
     8    16     1    1
     9     1     2    2
    10     1     5    2
    11     2     3    2
    12    15     9    1
    13     9     7    2
    14     5     4    1
    15     3     4    1
    16     3     6    1
    17     7     6    1
    18     7     8    1
    19     6    11    1
    20     8    10    1
    21    11    10    1
    22    11    13    1
    23    10    12    1
    24    13    14    1
    25    12    14    1
