@<TRIPOS>MOLECULE
ZINC37136702_replica-1.pdb
 20 21 0 0 0
SMALL
GASTEIGER

@<TRIPOS>ATOM
      1  C7        10.5840   35.0290   60.8640 C.2     0  <0>0        0.0290
      2  C8        10.3410   36.2850   61.4140 C.2     0  <0>0        0.0135
      3  C9         9.5910   37.2160   60.7260 C.2     0  <0>0        0.0408
      4  C10        9.0740   36.9020   59.4770 C.2     0  <0>0        0.1735
      5  C11        9.3150   35.6390   58.9160 C.2     0  <0>0        0.1521
      6  C12       10.0790   34.7040   59.6170 C.3     0  <0>0        0.1030
      7  N2         8.6910   35.6270   57.7070 N.2     0  <0>0       -0.3720
      8  C13        8.1110   36.7750   57.5230 C.2     0  <0>0        0.2561
      9  O1         8.3220   37.5770   58.5790 O.2     0  <0>0       -0.4281
     10  N1        11.3450   34.0940   61.5710 N.pl3   0  <0>0       -0.3356
     11  H14       10.9660   33.2300   61.7990 H       0  <0>0        0.1465
     12  C6        12.7180   34.4170   61.9690 C.3     0  <0>0        0.0867
     13  C4        13.1430   33.5090   63.1250 C.3     0  <0>0        0.0195
     14  C5        14.6400   33.2130   63.0170 C.3     0  <0>0        0.0017
     15  C3        12.3580   32.1970   63.0590 C.3     0  <0>0        0.0017
     16  C2        13.2230   31.0580   63.6010 C.3     0  <0>0        0.0001
     17  C1        12.3210   29.9340   64.1160 C.3     0  <0>0        0.0000
     18  C14        7.3160   37.1530   56.3000 C.3     0  <0>0        0.0896
     19  C15        7.4240   38.6610   56.0680 C.3     0  <0>0        0.0109
     20  C16        7.8700   36.4080   55.0830 C.3     0  <0>0        0.0109
@<TRIPOS>BOND
     1    20    18    1
     2    19    18    1
     3    18     8    1
     4     8     7    2
     5     8     9    1
     6     7     5    2
     7     9     4    1
     8     5     4    1
     9     5     6    1
    10     4     3    2
    11     6     1    1
    12     3     2    1
    13     1     2    2
    14     1    10    1
    15    10    11    1
    16    10    12    1
    17    12    13    1
    18    14    13    1
    19    15    13    1
    20    15    16    1
    21    16    17    1
