@<TRIPOS>MOLECULE
ZINC40018675_replica-1.pdb
 26 29 0 0 0
SMALL
GASTEIGER

@<TRIPOS>ATOM
      1  N1         6.9600   36.9960   58.0690 N.am    0  <0>0       -0.2398
      2  C9         6.0040   36.9140   58.9790 C.2     0  <0>0        0.2598
      3  O1         6.1290   37.4100   60.0840 O.2     0  <0>0       -0.2690
      4  C10        4.7760   36.1930   58.5870 C.2     0  <0>0        0.0849
      5  C11        3.6480   35.9550   59.3030 C.2     0  <0>0        0.0111
      6  S1         5.1860   35.7190   56.9140 S.3     0  <0>0       -0.0604
      7  C21        6.8140   36.4500   56.8440 C.2     0  <0>0        0.1215
      8  S2         7.9230   36.4540   55.5400 S.2     0  <0>0       -0.0272
      9  C12        2.6240   35.0430   58.7770 C.ar    0  <0>0        0.0005
     10  C17        2.7640   33.6580   58.9350 C.ar    0  <0>0       -0.0011
     11  C16        1.7990   32.8130   58.4450 C.ar    0  <0>0        0.0154
     12  C15        0.6870   33.3110   57.7720 C.ar    0  <0>0        0.1345
     13  C18        1.6570   31.3030   58.4800 C.3     0  <0>0        0.0729
     14  C14        0.5500   34.6910   57.6120 C.ar    0  <0>0        0.0366
     15  O2        -0.1250   32.3030   57.3540 O.3     0  <0>0       -0.4791
     16  C13        1.5040   35.5480   58.1070 C.ar    0  <0>0        0.0031
     17  C19        0.1680   31.1140   58.1060 C.3     0  <0>0        0.1704
     18  C20       -0.0190   29.8630   57.2450 C.3     0  <0>0        0.0476
     19  C8         8.2030   37.7000   58.3960 C.3     0  <0>0        0.1260
     20  C5         9.0710   36.8130   59.2510 C.ar    0  <0>0       -0.0020
     21  C4         9.4350   35.5590   58.7980 C.ar    0  <0>0       -0.0029
     22  C3        10.2330   34.7470   59.5820 C.ar    0  <0>0       -0.0045
     23  C2        10.6660   35.1880   60.8180 C.ar    0  <0>0       -0.0219
     24  C1        11.5350   34.3020   61.6720 C.3     0  <0>0        0.0310
     25  C7        10.2970   36.4400   61.2720 C.ar    0  <0>0       -0.0045
     26  C6         9.5040   37.2550   60.4870 C.ar    0  <0>0       -0.0029
@<TRIPOS>BOND
     1     8     7    2
     2     7     6    1
     3     7     1    1
     4     6     4    1
     5    18    17    1
     6    15    12    1
     7    15    17    1
     8    14    12   ar
     9    14    16   ar
    10    12    11   ar
    11     1    19    1
    12     1     2   am
    13    17    13    1
    14    16     9   ar
    15    19    20    1
    16    11    13    1
    17    11    10   ar
    18     4     2    1
    19     4     5    2
    20     9    10   ar
    21     9     5    1
    22    21    20   ar
    23    21    22   ar
    24     2     3    2
    25    20    26   ar
    26    22    23   ar
    27    26    25   ar
    28    23    25   ar
    29    23    24    1
