@<TRIPOS>MOLECULE
ZINC54000635_replica-1.pdb
 25 26 0 0 0
SMALL
GASTEIGER

@<TRIPOS>ATOM
      1  N1         5.0610   34.6050   59.0730 N.am    0  <0>0       -0.2598
      2  C7         5.3890   33.5000   58.1700 C.3     0  <0>0        0.1167
      3  C8         5.9300   35.6220   59.2370 C.2     0  <0>0        0.3044
      4  O1         5.6580   36.5400   59.9870 O.2     0  <0>0       -0.2526
      5  N2         7.1010   35.6220   58.5690 N.am    0  <0>0       -0.2866
      6  H12        7.3180   34.8900   57.9710 H       0  <0>0        0.1512
      7  C9         8.0460   36.7280   58.7480 C.3     0  <0>0        0.0955
      8  C10        9.1040   36.3290   59.7430 C.ar    0  <0>0       -0.0043
      9  C15        9.8250   35.1640   59.5540 C.ar    0  <0>0        0.0004
     10  C14       10.7990   34.7980   60.4630 C.ar    0  <0>0        0.0366
     11  C13       11.0480   35.5960   61.5700 C.ar    0  <0>0        0.1387
     12  C12       10.3210   36.7610   61.7600 C.ar    0  <0>0        0.0366
     13  C11        9.3500   37.1250   60.8470 C.ar    0  <0>0        0.0004
     14  O2        12.0040   35.2350   62.4670 O.3     0  <0>0       -0.4714
     15  C16       12.9220   34.2180   62.0640 C.3     0  <0>0        0.2525
     16  C17        8.7060   37.0570   57.4070 C.3     0  <0>0        0.0223
     17  C18        8.0150   36.2690   56.2920 C.3     0  <0>0        0.0020
     18  C19        8.5770   38.5550   57.1290 C.3     0  <0>0        0.0020
     19  C2         3.7880   34.6060   59.7980 C.3     0  <0>0        0.1054
     20  C1         3.5590   33.2300   60.4270 C.3     0  <0>0        0.0270
     21  C3         2.6650   34.9140   58.8420 C.ar    0  <0>0        0.0253
     22  S1         1.1300   34.0370   58.5900 S.2     0  <0>0       -0.0892
     23  C6         0.4500   35.0830   57.3130 C.ar    0  <0>0        0.0352
     24  C5         1.4250   36.0120   57.1610 C.ar    0  <0>0        0.0072
     25  C4         2.5610   35.9250   57.9440 C.ar    0  <0>0        0.0043
@<TRIPOS>BOND
     1    17    16    1
     2    18    16    1
     3    24    23   ar
     4    24    25   ar
     5    23    22   ar
     6    16     7    1
     7    25    21   ar
     8     6     5    1
     9     2     1    1
    10     5     7    1
    11     5     3   am
    12    22    21   ar
    13     7     8    1
    14    21    19    1
    15     1     3   am
    16     1    19    1
    17     3     4    2
    18     9     8   ar
    19     9    10   ar
    20     8    13   ar
    21    19    20    1
    22    10    11   ar
    23    13    12   ar
    24    11    12   ar
    25    11    14    1
    26    15    14    1
