@<TRIPOS>MOLECULE
ZINC04369587_replica-1.pdb
 24 27 0 0 0
SMALL
GASTEIGER

@<TRIPOS>ATOM
      1  C3         2.8310   34.5790   56.5470 C.3     0  <0>0        0.1686
      2  C4         3.4100   33.3900   55.7410 C.3     0  <0>0        0.0436
      3  C5         4.8980   33.2540   56.1640 C.3     0  <0>0        0.0038
      4  C6         4.9890   34.1260   57.4250 C.3     0  <0>0        0.0035
      5  C7         4.0880   35.3220   57.0540 C.3     0  <0>0        0.0369
      6  C8         3.8490   36.2180   58.2430 C.3     0  <0>0        0.0035
      7  C9         5.0830   36.2640   59.1550 C.3     0  <0>0        0.0001
      8  C10        6.3570   35.9840   58.3680 C.3     0  <0>0        0.0004
      9  C11        6.3570   34.5390   57.8710 C.3     0  <0>0        0.0001
     10  C12        7.4550   34.3150   56.8410 C.3     0  <0>0        0.0000
     11  C13        8.7250   35.0590   57.2850 C.3     0  <0>0        0.0000
     12  C14        8.6770   35.2150   58.7990 C.3     0  <0>0        0.0008
     13  C15        7.6130   36.2420   59.1930 C.3     0  <0>0        0.0069
     14  C16        7.3690   36.1240   60.6980 C.3     0  <0>0        0.0645
     15  C17        8.7060   36.3450   61.3790 C.2     0  <0>0        0.1506
     16  O3         8.8100   37.1590   62.2660 O.2     0  <0>0       -0.2961
     17  C18        9.9030   35.5380   60.9380 C.3     0  <0>0        0.0645
     18  C19       10.0260   35.5720   59.4070 C.3     0  <0>0        0.0078
     19  C20        8.1010   37.6590   58.8830 C.3     0  <0>0        0.0004
     20  C21        4.6350   36.1210   55.8700 C.3     0  <0>0        0.0036
     21  O2         2.0500   34.0990   57.6670 O.3     0  <0>0       -0.4523
     22  C2         0.7600   34.4660   57.7140 C.2     0  <0>0        0.3174
     23  C1         0.3000   35.7020   56.9860 C.3     0  <0>0        0.1212
     24  O1        -0.0330   33.8040   58.3410 O.2     0  <0>0       -0.2501
@<TRIPOS>BOND
     1     2     3    1
     2     2     1    1
     3    20     5    1
     4     3     4    1
     5     1     5    1
     6     1    21    1
     7    10    11    1
     8    10     9    1
     9    23    22    1
    10     5     4    1
    11     5     6    1
    12    11    12    1
    13     4     9    1
    14    21    22    1
    15    22    24    2
    16     9     8    1
    17     6     7    1
    18     8     7    1
    19     8    13    1
    20    12    13    1
    21    12    18    1
    22    19    13    1
    23    13    14    1
    24    18    17    1
    25    14    15    1
    26    17    15    1
    27    15    16    2
