@<TRIPOS>MOLECULE
ZINC10345944_replica-1.pdb
 23 24 0 0 0
SMALL
GASTEIGER

@<TRIPOS>ATOM
      1  C9        -0.7550   30.1690   55.5660 C.ar    0  <0>0        0.1865
      2  N2         0.1720   30.8460   54.9180 N.ar    0  <0>0       -0.1249
      3  N3         0.9970   31.7080   55.6040 N.ar    0  <0>0       -0.1331
      4  C10        0.8640   31.8430   56.9100 C.ar    0  <0>0        0.1611
      5  S1        -0.4890   30.7250   57.2430 S.2     0  <0>0       -0.0242
      6  N1        -1.6860   29.2590   55.0770 N.pl3   0  <0>0       -0.2918
      7  H10       -2.5220   29.1200   55.5490 H       0  <0>0        0.1541
      8  C8        -1.4170   28.5460   53.9070 C.ar    0  <0>0        0.0417
      9  C3        -0.6030   27.4200   53.9500 C.ar    0  <0>0       -0.0090
     10  C4        -0.3340   26.7200   52.7900 C.ar    0  <0>0       -0.0031
     11  C5        -0.8740   27.1370   51.5880 C.ar    0  <0>0       -0.0006
     12  C6        -1.6830   28.2580   51.5410 C.ar    0  <0>0       -0.0031
     13  C7        -1.9570   28.9620   52.6960 C.ar    0  <0>0       -0.0087
     14  C15       -2.8400   30.1830   52.6450 C.3     0  <0>0        0.0323
     15  C2        -0.0150   26.9640   55.2600 C.3     0  <0>0        0.0276
     16  C1         0.6420   25.5950   55.0750 C.3     0  <0>0        0.0051
     17  S2         1.7760   32.8550   58.0260 S.3     0  <0>0       -0.0761
     18  C11        0.6270   34.1950   58.4430 C.3     0  <0>0        0.1524
     19  C12        0.7480   34.5280   59.9320 C.3     0  <0>0        0.0239
     20  C13        0.9610   35.4170   57.6270 C.2     0  <0>0        0.3272
     21  O1         0.2050   35.7900   56.7600 O.2     0  <0>0       -0.2492
     22  O2         2.0970   36.0910   57.8620 O.3     0  <0>0       -0.4438
     23  C14        3.0950   36.0890   56.8070 C.3     0  <0>0        0.2556
@<TRIPOS>BOND
     1    12    11   ar
     2    12    13   ar
     3    11    10   ar
     4    14    13    1
     5    13     8   ar
     6    10     9   ar
     7     8     9   ar
     8     8     6    1
     9     9    15    1
    10     2     1   ar
    11     2     3   ar
    12    16    15    1
    13     6     7    1
    14     6     1    1
    15     1     5   ar
    16     3     4   ar
    17    21    20    2
    18    23    22    1
    19     4     5   ar
    20     4    17    1
    21    20    22    1
    22    20    18    1
    23    17    18    1
    24    18    19    1
