@<TRIPOS>MOLECULE
ZINC58847378_replica-1.pdb
 33 37 0 0 0
SMALL
GASTEIGER

@<TRIPOS>ATOM
      1  C7         0.5710   28.8090   55.3800 C.3     0  <0>0        0.0921
      2  C8        -0.1110   28.1890   56.5630 C.3     0  <0>0        0.0262
      3  C9        -1.6430   28.3690   56.5170 C.3     0  <0>0        0.0023
      4  C10       -2.0510   28.3540   57.9740 C.3     0  <0>0        0.0004
      5  C11       -1.0220   28.5740   58.7510 C.3     0  <0>0        0.0045
      6  C12        0.2190   28.7980   57.9230 C.3     0  <0>0        0.0255
      7  C13        0.4750   30.2770   57.8600 C.ar    0  <0>0       -0.0080
      8  C14        0.4820   30.9940   59.0480 C.ar    0  <0>0        0.0171
      9  C15        0.7020   32.3570   59.0420 C.ar    0  <0>0        0.1249
     10  C16        0.9160   33.0210   57.8470 C.ar    0  <0>0        0.0214
     11  C17        0.9140   32.3150   56.6600 C.ar    0  <0>0        0.0154
     12  C18        0.6990   30.9390   56.6660 C.ar    0  <0>0        0.0408
     13  N1         0.7490   30.2430   55.4740 N.pl3   0  <0>0       -0.3308
     14  H15        0.8840   30.7490   54.6570 H       0  <0>0        0.1471
     15  S1         0.7080   33.2540   60.5580 S.O2    0  <0>0        0.0736
     16  O1         0.4480   34.6120   60.2290 O.2     0  <0>0       -0.1499
     17  O2        -0.1020   32.5210   61.4670 O.2     0  <0>0       -0.1499
     18  N2         2.2540   33.2000   61.1520 N.pl3   0  <0>0       -0.2150
     19  H16        2.4040   33.1440   62.1090 H       0  <0>0        0.1737
     20  C19        3.3400   33.2340   60.2760 C.ar    0  <0>0        0.0656
     21  C24        3.7460   34.4390   59.7190 C.ar    0  <0>0        0.0272
     22  C23        4.8250   34.4700   58.8550 C.ar    0  <0>0        0.0589
     23  C22        5.4940   33.3010   58.5400 C.ar    0  <0>0        0.0115
     24 Cl          5.3390   35.9780   58.1630 Cl      0  <0>0       -0.0822
     25  C21        5.0880   32.0980   59.0890 C.ar    0  <0>0        0.0022
     26  C20        4.0140   32.0620   59.9560 C.ar    0  <0>0        0.0159
     27  C3        -0.2430   28.5090   54.1480 C.ar    0  <0>0       -0.0037
     28  C2        -1.1170   29.4560   53.6500 C.ar    0  <0>0       -0.0026
     29  C1        -1.8650   29.1820   52.5190 C.ar    0  <0>0        0.0006
     30  C6        -1.7370   27.9600   51.8870 C.ar    0  <0>0        0.0114
     31  C5        -0.8620   27.0110   52.3840 C.ar    0  <0>0        0.0574
     32  C4        -0.1150   27.2860   53.5160 C.ar    0  <0>0        0.0087
     33 Cl         -0.7010   25.4760   51.5890 Cl      0  <0>0       -0.0823
@<TRIPOS>BOND
     1    33    31    1
     2    30    31   ar
     3    30    29   ar
     4    31    32   ar
     5    29    28   ar
     6    32    27   ar
     7    28    27   ar
     8    27     1    1
     9    14    13    1
    10     1    13    1
    11     1     2    1
    12    13    12    1
    13     3     2    1
    14     3     4    1
    15     2     6    1
    16    11    12   ar
    17    11    10   ar
    18    12     7   ar
    19    10     9   ar
    20     7     6    1
    21     7     8   ar
    22     6     5    1
    23     4     5    1
    24    24    22    1
    25    23    22   ar
    26    23    25   ar
    27    22    21   ar
    28     9     8   ar
    29     9    15    1
    30    25    26   ar
    31    21    20   ar
    32    26    20   ar
    33    16    15    2
    34    20    18    1
    35    15    18    1
    36    15    17    2
    37    18    19    1
