@<TRIPOS>MOLECULE
ZINC51637995_replica-1.pdb
 21 23 0 0 0
SMALL
GASTEIGER

@<TRIPOS>ATOM
      1  C1         9.1770   36.7850   60.3800 C.ar    0  <0>0        0.0172
      2  C2         8.9020   37.9540   59.6950 C.ar    0  <0>0        0.0316
      3  C3         8.5950   37.9150   58.3480 C.ar    0  <0>0        0.1497
      4  C4         8.5620   36.6890   57.6750 C.ar    0  <0>0        0.0970
      5  C5         8.8400   35.5100   58.3700 C.ar    0  <0>0        0.0274
      6  C6         9.1470   35.5630   59.7200 C.ar    0  <0>0        0.0548
      7  C15        8.2430   36.6410   56.2800 C.1     0  <0>0        0.1027
      8  N3         7.9910   36.6040   55.1730 N.1     0  <0>0       -0.1908
      9  F1         8.3260   39.0590   57.6820 F       0  <0>0       -0.2035
     10  N1         9.4270   34.3820   60.4220 N.pl3   0  <0>0       -0.2564
     11  C13        8.6230   33.2860   60.5120 C.2     0  <0>0        0.1805
     12  N2         9.1960   32.3700   61.2380 N.2     0  <0>0       -0.3921
     13  C12       10.4010   32.8190   61.6730 C.2     0  <0>0        0.1336
     14  C7        10.5680   34.1150   61.1560 C.3     0  <0>0        0.1536
     15  C11       11.4050   32.2620   62.4700 C.2     0  <0>0        0.0410
     16  C8        11.7220   34.8320   61.4400 C.2     0  <0>0        0.0016
     17  C9        12.7030   34.2680   62.2270 C.2     0  <0>0        0.0090
     18  C10       12.5450   32.9870   62.7400 C.2     0  <0>0        0.0597
     19 Cl         13.7920   32.2950   63.7300 Cl      0  <0>0       -0.0822
     20  C14        7.2710   33.1490   59.8600 C.3     0  <0>0        0.1695
     21 Cl          6.0660   34.1400   60.7630 Cl      0  <0>0       -0.1041
@<TRIPOS>BOND
     1     8     7    3
     2     7     4    1
     3     4     3   ar
     4     4     5   ar
     5     9     3    1
     6     3     2   ar
     7     5     6   ar
     8     2     1   ar
     9     6     1   ar
    10     6    10    1
    11    20    11    1
    12    20    21    1
    13    10    11    1
    14    10    14    1
    15    11    12    2
    16    14    16    1
    17    14    13    1
    18    12    13    2
    19    16    17    2
    20    13    15    1
    21    17    18    1
    22    15    18    2
    23    18    19    1
