@<TRIPOS>MOLECULE
ZINC35047092_replica-1.pdb
 21 22 0 0 0
SMALL
GASTEIGER

@<TRIPOS>ATOM
      1  N1        11.1880   34.5220   60.5450 N.pl3   0  <0>0       -0.3290
      2  H4        11.2790   33.7030   60.0350 H       0  <0>0        0.1471
      3  C6        10.3020   35.5160   60.1170 C.ar    0  <0>0        0.0466
      4  C1        10.0980   36.6480   60.8960 C.ar    0  <0>0        0.0153
      5  C2         9.2220   37.6270   60.4690 C.ar    0  <0>0        0.0143
      6  C3         8.5500   37.4830   59.2690 C.ar    0  <0>0        0.0801
      7  C4         8.7530   36.3560   58.4910 C.ar    0  <0>0        0.1546
      8 Cl          7.4500   38.7170   58.7370 Cl      0  <0>0       -0.0805
      9  C5         9.6270   35.3730   58.9110 C.ar    0  <0>0        0.0392
     10  N2         8.0320   36.2040   57.2080 N.pl3   0  <0>0        0.0586
     11  O1         8.4980   36.6690   56.1930 O.2     0  <0>0       -0.1261
     12  O2         6.9770   35.6150   57.1730 O.2     0  <0>0       -0.1261
     13  C7        11.9770   34.7200   61.7630 C.3     0  <0>0        0.1165
     14  C8        12.1310   33.4030   62.4810 C.ar    0  <0>0        0.0249
     15  C13       13.3830   32.9860   62.8990 C.ar    0  <0>0        0.1382
     16  C12       13.5230   31.7790   63.5630 C.ar    0  <0>0        0.0361
     17  F1        14.4660   33.7590   62.6640 F       0  <0>0       -0.2044
     18  C11       12.4140   30.9860   63.7970 C.ar    0  <0>0        0.0368
     19  C10       11.1640   31.4030   63.3730 C.ar    0  <0>0        0.0066
     20 Br         12.6060   29.3350   64.6970 Br      0  <0>0       -0.0489
     21  C9        11.0240   32.6100   62.7160 C.ar    0  <0>0        0.0001
@<TRIPOS>BOND
     1    11    10    2
     2    12    10    2
     3    10     7    1
     4     7     9   ar
     5     7     6   ar
     6     8     6    1
     7     9     3   ar
     8     6     5   ar
     9     2     1    1
    10     3     1    1
    11     3     4   ar
    12     5     4   ar
    13     1    13    1
    14    13    14    1
    15    14    21   ar
    16    14    15   ar
    17    17    15    1
    18    21    19   ar
    19    15    16   ar
    20    19    18   ar
    21    16    18   ar
    22    18    20    1
