@<TRIPOS>MOLECULE
ZINC43501976_replica-1.pdb
 18 18 0 0 0
SMALL
GASTEIGER

@<TRIPOS>ATOM
      1  C4         7.7740   36.4060   57.6950 C.3     0  <0>0        0.1604
      2  C3         6.5530   35.5230   57.6680 C.2     0  <0>0        0.3239
      3  O2         6.6760   34.3210   57.6570 O.2     0  <0>0       -0.2496
      4  O1         5.3280   36.0720   57.6540 O.3     0  <0>0       -0.4482
      5  C2         4.3340   35.4200   56.8610 C.3     0  <0>0        0.2086
      6  C1         3.9240   36.3330   55.7030 C.3     0  <0>0        0.0513
      7  C5         7.5630   37.5950   56.7550 C.3     0  <0>0        0.0180
      8  C6         8.7060   38.5960   56.9350 C.3     0  <0>0        0.0010
      9  C7         7.5410   37.1030   55.3060 C.3     0  <0>0        0.0010
     10  C8         7.9990   36.9080   59.0970 C.2     0  <0>0        0.1833
     11  O3         7.2770   37.7670   59.5570 O.2     0  <0>0       -0.2908
     12  C9         9.0940   36.3560   59.9090 C.ar    0  <0>0        0.0353
     13  C14        9.7030   35.1510   59.5430 C.ar    0  <0>0        0.0034
     14  C13       10.7320   34.6420   60.3050 C.ar    0  <0>0        0.0068
     15  C12       11.1550   35.3150   61.4400 C.ar    0  <0>0        0.0346
     16  C11       10.5530   36.5060   61.8130 C.ar    0  <0>0        0.0068
     17 Br         12.5630   34.6060   62.4850 Br      0  <0>0       -0.0490
     18  C10        9.5280   37.0300   61.0560 C.ar    0  <0>0        0.0034
@<TRIPOS>BOND
     1     9     7    1
     2     6     5    1
     3     7     8    1
     4     7     1    1
     5     5     4    1
     6     4     2    1
     7     3     2    2
     8     2     1    1
     9     1    10    1
    10    10    11    2
    11    10    12    1
    12    13    12   ar
    13    13    14   ar
    14    12    18   ar
    15    14    15   ar
    16    18    16   ar
    17    15    16   ar
    18    15    17    1
