@<TRIPOS>MOLECULE
ZINC48854936_replica-1.pdb
 22 22 0 0 0
SMALL
GASTEIGER

@<TRIPOS>ATOM
      1  N2        -0.1160   31.5040   55.2120 N.am    0  <0>0       -0.2893
      2  C8         0.9650   31.7680   55.9720 C.2     0  <0>0        0.3008
      3  O1         1.1970   31.0930   56.9560 O.2     0  <0>0       -0.2528
      4  N3         1.7910   32.7820   55.6400 N.am    0  <0>0       -0.2881
      5  H11       -0.3010   32.0440   54.4280 H       0  <0>0        0.1509
      6  H12        1.6060   33.3210   54.8570 H       0  <0>0        0.1510
      7  C6        -1.0130   30.4040   55.5720 C.3     0  <0>0        0.0897
      8  C7        -2.4230   30.9500   55.8080 C.3     0  <0>0        0.0226
      9  C3        -1.0460   29.3960   54.4520 C.3     0  <0>0        0.1197
     10  C2        -0.4380   28.1850   54.3570 C.2     0  <0>0        0.0989
     11  C1         0.4290   27.6500   55.4670 C.3     0  <0>0        0.0624
     12  N1        -0.6360   27.5030   53.2470 N.2     0  <0>0       -0.4078
     13  C4        -1.3940   27.9700   52.2860 C.2     0  <0>0        0.1344
     14  S1        -1.8950   29.4620   52.8830 S.3     0  <0>0       -0.0791
     15  C5        -1.7310   27.3300   50.9640 C.3     0  <0>0        0.0735
     16  C9         2.9660   33.0680   56.4660 C.3     0  <0>0        0.1028
     17  C10        2.7170   34.3340   57.2870 C.3     0  <0>0        0.0867
     18  S2         2.4860   33.8900   59.0300 S.3     0  <0>0       -0.0396
     19  C11        0.6850   33.8640   59.2420 C.3     0  <0>0        0.4438
     20  F1         0.0700   34.2510   58.0460 F       0  <0>0       -0.1602
     21  F2         0.2730   32.5700   59.5800 F       0  <0>0       -0.1602
     22  F3         0.3210   34.7510   60.2610 F       0  <0>0       -0.1602
@<TRIPOS>BOND
     1    15    13    1
     2    13    14    1
     3    13    12    2
     4    14     9    1
     5    12    10    2
     6    10     9    1
     7    10    11    1
     8     5     1    1
     9     9     7    1
    10     6     4    1
    11     1     7    1
    12     1     2   am
    13     7     8    1
    14     4     2   am
    15     4    16    1
    16     2     3    2
    17    16    17    1
    18    17    18    1
    19    20    19    1
    20    18    19    1
    21    19    21    1
    22    19    22    1
