@<TRIPOS>MOLECULE
ZINC04867356_replica-1.pdb
 25 26 0 0 0
SMALL
GASTEIGER

@<TRIPOS>ATOM
      1  C5         7.7300   36.4920   58.2840 C.ar    0  <0>0        0.0509
      2  C6         8.8650   35.7190   58.0550 C.ar    0  <0>0        0.0148
      3  C7         9.7600   35.4840   59.0750 C.ar    0  <0>0        0.0059
      4  C8         9.5290   36.0190   60.3440 C.ar    0  <0>0        0.0544
      5  C9         8.3890   36.8030   60.5720 C.ar    0  <0>0        0.1364
      6  C10        7.4930   37.0290   59.5430 C.ar    0  <0>0        0.0512
      7  C11       10.4850   35.7700   61.4380 C.2     0  <0>0        0.1205
      8  N2        11.4470   34.9120   61.2760 N.2     0  <0>0       -0.1796
      9  N3        12.3560   34.6750   62.3160 N.pl3   0  <0>0       -0.2337
     10  H16       12.8710   35.4090   62.6860 H       0  <0>0        0.1745
     11  C12       12.5180   33.3820   62.8200 C.ar    0  <0>0        0.0925
     12  C17       13.7840   32.9270   63.1770 C.ar    0  <0>0        0.1570
     13  C16       13.9400   31.6490   63.6810 C.ar    0  <0>0        0.0606
     14  F1        14.8580   33.7360   63.0380 F       0  <0>0       -0.2027
     15  C15       12.8410   30.8200   63.8200 C.ar    0  <0>0        0.1425
     16  C14       11.5810   31.2680   63.4590 C.ar    0  <0>0        0.0311
     17  F2        12.9970   29.5690   64.3080 F       0  <0>0       -0.2041
     18  C13       11.4180   32.5460   62.9610 C.ar    0  <0>0        0.0206
     19  O1         8.1600   37.3320   61.8030 O.3     0  <0>0       -0.5054
     20  H14        7.8480   36.6910   62.4550 H       0  <0>0        0.2922
     21  N1         6.8280   36.7270   57.2460 N.pl3   0  <0>0       -0.3074
     22  C2         7.1950   37.6180   56.1420 C.3     0  <0>0        0.0908
     23  C1         8.0860   38.7440   56.6700 C.3     0  <0>0        0.0232
     24  C3         5.5120   36.0830   57.2600 C.3     0  <0>0        0.0908
     25  C4         5.6770   34.5900   57.5470 C.3     0  <0>0        0.0232
@<TRIPOS>BOND
     1    22    23    1
     2    22    21    1
     3    21    24    1
     4    21     1    1
     5    24    25    1
     6     2     1   ar
     7     2     3   ar
     8     1     6   ar
     9     3     4   ar
    10     6     5   ar
    11     4     5   ar
    12     4     7    1
    13     5    19    1
    14     8     7    2
    15     8     9    1
    16    19    20    1
    17     9    10    1
    18     9    11    1
    19    11    18   ar
    20    11    12   ar
    21    18    16   ar
    22    14    12    1
    23    12    13   ar
    24    16    15   ar
    25    13    15   ar
    26    15    17    1
