@<TRIPOS>MOLECULE
ZINC36739511_replica-1.pdb
 28 30 0 0 0
SMALL
GASTEIGER

@<TRIPOS>ATOM
      1  N1         6.8190   36.4690   58.6640 N.am    0  <0>0       -0.3021
      2  C12        5.6920   36.6610   59.3780 C.2     0  <0>0        0.2269
      3  O1         5.6320   37.5620   60.1880 O.2     0  <0>0       -0.2749
      4  H16        6.8660   35.7490   58.0170 H       0  <0>0        0.1497
      5  C13        4.5040   35.7570   59.1680 C.3     0  <0>0        0.1369
      6  C14        4.1630   35.7000   57.6780 C.3     0  <0>0        0.2275
      7  N2         3.5400   34.4110   57.3680 N.am    0  <0>0       -0.1141
      8  C16        2.2040   34.1510   57.2290 C.1     0  <0>0        0.1797
      9  N4         2.0830   32.8730   56.9500 N.2     0  <0>0        0.0474
     10  S1         0.8910   35.3150   57.3900 S.2     0  <0>0        0.0561
     11  N3         3.2410   32.3150   56.9140 N.2     0  <0>0        0.0931
     12  C15        4.1760   33.2070   57.1620 C.2     0  <0>0        0.3699
     13  C17        5.6270   32.9630   57.2110 C.ar    0  <0>0        0.1152
     14  S2         6.6230   32.3670   58.5670 S.2     0  <0>0       -0.0790
     15  C20        8.2070   32.3820   57.7420 C.ar    0  <0>0        0.0357
     16  C19        7.8800   32.8400   56.5060 C.ar    0  <0>0        0.0077
     17  C18        6.5660   33.1390   56.2260 C.ar    0  <0>0        0.0146
     18  C5         7.9720   37.3480   58.8680 C.3     0  <0>0        0.0940
     19  C4         8.5600   37.7420   57.5110 C.3     0  <0>0        0.0241
     20  C2         7.6050   37.3090   56.3970 C.3     0  <0>0        0.0020
     21  C1         7.1400   38.5410   55.6170 C.3     0  <0>0        0.0001
     22  C3         8.3280   36.3480   55.4510 C.3     0  <0>0        0.0001
     23  C6         9.0180   36.6260   59.6780 C.ar    0  <0>0       -0.0045
     24  C11        9.4580   37.1600   60.8740 C.ar    0  <0>0       -0.0027
     25  C10       10.4150   36.4940   61.6190 C.ar    0  <0>0       -0.0003
     26  C9        10.9360   35.2980   61.1630 C.ar    0  <0>0       -0.0000
     27  C8        10.5010   34.7660   59.9640 C.ar    0  <0>0       -0.0003
     28  C7         9.5410   35.4290   59.2210 C.ar    0  <0>0       -0.0027
@<TRIPOS>BOND
     1    22    20    1
     2    21    20    1
     3    17    16   ar
     4    17    13   ar
     5    20    19    1
     6    16    15   ar
     7    11     9    1
     8    11    12    2
     9     9     8    2
    10    12    13    1
    11    12     7    1
    12    13    14   ar
    13     8     7    1
    14     8    10    2
    15     7     6    1
    16    19    18    1
    17     6     5    1
    18    15    14   ar
    19     4     1    1
    20     1    18    1
    21     1     2   am
    22    18    23    1
    23     5     2    1
    24    28    23   ar
    25    28    27   ar
    26     2     3    2
    27    23    24   ar
    28    27    26   ar
    29    24    25   ar
    30    26    25   ar
