@<TRIPOS>MOLECULE
ZINC09833359_replica-1.pdb
 31 34 0 0 0
SMALL
GASTEIGER

@<TRIPOS>ATOM
      1  N3         0.6230   30.2480   55.3010 N.4     0  <0>0        0.3961
      2  H25        1.0760   29.7880   56.1000 H       0  <0>0       -0.0828
      3  H26        1.1610   30.0600   54.4480 H       0  <0>0       -0.0828
      4  C9         0.5780   31.7030   55.5380 C.3     0  <0>0        0.0085
      5  C8         1.8110   32.1180   56.2980 C.ar    0  <0>0        0.2053
      6  N2         2.2070   31.6360   57.4430 N.ar    0  <0>0       -0.1136
      7  N1         3.2990   32.2160   57.8000 N.ar    0  <0>0       -0.1068
      8  C7         3.6410   33.0980   56.8860 C.ar    0  <0>0        0.2554
      9  O1         2.7000   33.0540   55.9190 O.2     0  <0>0       -0.4212
     10  C6         4.8220   33.9720   56.9150 C.ar    0  <0>0        0.0839
     11  C5         5.4390   34.6380   55.8720 C.ar    0  <0>0        0.0071
     12  C4         6.5460   35.4080   56.1500 C.ar    0  <0>0       -0.0192
     13  C3         6.9950   35.4880   57.4300 C.ar    0  <0>0        0.0035
     14  C24        7.2520   36.1520   55.0470 C.3     0  <0>0        0.0312
     15  S1         5.8310   34.4560   58.3060 S.2     0  <0>0       -0.0869
     16  C2         8.1710   36.2580   57.9720 C.3     0  <0>0        0.0326
     17  C1         9.2850   35.2820   58.3600 C.3     0  <0>0        0.0056
     18  C10       -0.7430   29.7130   55.1430 C.3     0  <0>0       -0.0145
     19  C11       -0.7590   28.6940   54.0330 C.ar    0  <0>0       -0.0381
     20  C16       -1.4920   28.9330   52.8860 C.ar    0  <0>0       -0.0060
     21  C15       -1.5070   27.9990   51.8680 C.ar    0  <0>0       -0.0004
     22  C14       -0.7880   26.8250   51.9960 C.ar    0  <0>0       -0.0000
     23  C13       -0.0530   26.5860   53.1430 C.ar    0  <0>0       -0.0004
     24  C12       -0.0350   27.5230   54.1600 C.ar    0  <0>0       -0.0060
     25  C17       -1.1690   29.0580   56.4320 C.ar    0  <0>0       -0.0381
     26  C22       -0.3130   29.0490   57.5180 C.ar    0  <0>0       -0.0063
     27  C21       -0.7040   28.4490   58.7010 C.ar    0  <0>0       -0.0046
     28  C20       -1.9490   27.8570   58.7970 C.ar    0  <0>0       -0.0219
     29  C19       -2.8040   27.8650   57.7120 C.ar    0  <0>0       -0.0046
     30  C23       -2.3750   27.2030   60.0860 C.3     0  <0>0        0.0310
     31  C18       -2.4160   28.4700   56.5300 C.ar    0  <0>0       -0.0063
@<TRIPOS>BOND
     1    21    22   ar
     2    21    20   ar
     3    22    23   ar
     4    20    19   ar
     5    23    24   ar
     6    19    24   ar
     7    19    18    1
     8     3     1    1
     9    14    12    1
    10    18     1    1
    11    18    25    1
    12     1     4    1
    13     1     2    1
    14     4     5    1
    15    11    12   ar
    16    11    10   ar
    17     9     5   ar
    18     9     8   ar
    19    12    13   ar
    20     5     6   ar
    21    25    31   ar
    22    25    26   ar
    23    31    29   ar
    24     8    10    1
    25     8     7   ar
    26    10    15   ar
    27    13    16    1
    28    13    15   ar
    29     6     7   ar
    30    26    27   ar
    31    29    28   ar
    32    16    17    1
    33    27    28   ar
    34    28    30    1
