@<TRIPOS>MOLECULE
ZINC36617245_replica-1.pdb
 26 29 0 0 0
SMALL
GASTEIGER

@<TRIPOS>ATOM
      1  N1         3.5310   34.1610   57.4820 N.am    0  <0>0       -0.2271
      2  C8         4.5970   35.0440   57.5280 C.2     0  <0>0        0.1806
      3  C9         5.3450   35.2530   56.3540 C.3     0  <0>0        0.1675
      4  C10        6.4230   36.1370   56.3740 C.2     0  <0>0        0.0399
      5  C11        6.7120   36.7780   57.5680 C.2     0  <0>0        0.0254
      6  C12        5.9330   36.5240   58.6840 C.2     0  <0>0        0.1094
      7  N2         4.9170   35.6820   58.6400 N.2     0  <0>0       -0.3944
      8  C17        4.9590   34.5240   55.1340 C.2     0  <0>0        0.2390
      9  O1         5.5750   34.6720   54.0960 O.2     0  <0>0       -0.2739
     10  N3         3.9020   33.6850   55.2000 N.am    0  <0>0       -0.2660
     11  C18        3.2210   33.5160   56.3450 C.2     0  <0>0        0.1496
     12  S1         1.8970   32.4310   56.3550 S.2     0  <0>0       -0.0176
     13  H15        3.6310   33.1960   54.4080 H       0  <0>0        0.1565
     14  C7         2.7710   33.9340   58.6360 C.ar    0  <0>0        0.0552
     15  C2         1.6490   34.7110   58.8920 C.ar    0  <0>0       -0.0078
     16  C1         1.2470   35.7990   57.9310 C.3     0  <0>0        0.0323
     17  C3         0.8980   34.4820   60.0290 C.ar    0  <0>0       -0.0030
     18  C4         1.2660   33.4840   60.9130 C.ar    0  <0>0       -0.0002
     19  C5         2.3860   32.7130   60.6630 C.ar    0  <0>0        0.0013
     20  C6         3.1410   32.9380   59.5290 C.ar    0  <0>0        0.0149
     21  C13        6.2520   37.2240   59.9800 C.3     0  <0>0        0.0525
     22  C15        7.6040   37.9310   60.0860 C.3     0  <0>0        0.0074
     23  C14        7.3610   36.6280   60.8490 C.3     0  <0>0        0.0074
     24  C16        7.2470   36.3870   55.1390 C.3     0  <0>0        0.3381
     25  F1         7.2730   37.7580   54.8630 F       0  <0>0       -0.1936
     26  F2         8.5530   35.9290   55.3490 F       0  <0>0       -0.1936
@<TRIPOS>BOND
     1     9     8    2
     2    13    10    1
     3    25    24    1
     4     8    10   am
     5     8     3    1
     6    24    26    1
     7    24     4    1
     8    10    11    1
     9    11    12    2
    10    11     1    1
    11     3     4    1
    12     3     2    1
    13     4     5    2
    14     1     2    1
    15     1    14    1
    16     2     7    2
    17     5     6    1
    18    16    15    1
    19    14    15   ar
    20    14    20   ar
    21     7     6    2
    22     6    21    1
    23    15    17   ar
    24    20    19   ar
    25    21    22    1
    26    21    23    1
    27    17    18   ar
    28    22    23    1
    29    19    18   ar
