@<TRIPOS>MOLECULE
ZINC13224439_replica-1.pdb
 26 27 0 0 0
SMALL
GASTEIGER

@<TRIPOS>ATOM
      1  C11        7.4780   35.4250   59.3360 C.2     0  <0>0        0.2263
      2  O1         7.0250   35.2110   60.4400 O.2     0  <0>0       -0.2748
      3  N1         6.9070   34.8610   58.2530 N.am    0  <0>0       -0.3014
      4  H14        7.2970   34.9940   57.3750 H       0  <0>0        0.1497
      5  C4         8.6790   36.3210   59.1740 C.3     0  <0>0        0.0987
      6  C2         8.2570   37.7790   59.3630 C.3     0  <0>0        0.0127
      7  C1         8.5570   38.5660   58.0860 C.3     0  <0>0        0.0008
      8  C3         6.7570   37.8400   59.6600 C.3     0  <0>0        0.0008
      9  C5         9.7170   35.9600   60.2060 C.ar    0  <0>0       -0.0138
     10  C10       10.0210   36.8480   61.2200 C.ar    0  <0>0       -0.0029
     11  C9        10.9760   36.5210   62.1640 C.ar    0  <0>0        0.0111
     12  C8        11.6250   35.3010   62.0950 C.ar    0  <0>0        0.0577
     13  C7        11.3160   34.4090   61.0830 C.ar    0  <0>0        0.0111
     14 Cl         12.8250   34.8890   63.2790 Cl      0  <0>0       -0.0822
     15  C6        10.3610   34.7380   60.1410 C.ar    0  <0>0       -0.0029
     16  C12        5.6970   34.0480   58.4010 C.3     0  <0>0        0.1053
     17  C13        5.8370   32.7700   57.5740 C.3     0  <0>0        0.1380
     18  C14        7.1590   32.7810   56.8510 C.2     0  <0>0        0.3669
     19  O2         7.2270   33.2020   55.7210 O.co2   0  <0>0       -0.2456
     20  O3         8.2630   32.3240   57.4640 O.co2   0  <0>0       -0.2456
     21  C15        4.5030   34.8310   57.9200 C.ar    0  <0>0       -0.0040
     22  C20        3.4300   35.0460   58.7640 C.ar    0  <0>0       -0.0027
     23  C19        2.3350   35.7640   58.3210 C.ar    0  <0>0       -0.0003
     24  C18        2.3120   36.2670   57.0340 C.ar    0  <0>0       -0.0000
     25  C17        3.3860   36.0530   56.1900 C.ar    0  <0>0       -0.0003
     26  C16        4.4830   35.3380   56.6340 C.ar    0  <0>0       -0.0027
@<TRIPOS>BOND
     1    19    18   ar
     2    25    26   ar
     3    25    24   ar
     4    26    21   ar
     5    18    20   ar
     6    18    17    1
     7    24    23   ar
     8     4     3    1
     9    17    16    1
    10    21    16    1
    11    21    22   ar
    12     7     6    1
    13     3    16    1
    14     3     1   am
    15    23    22   ar
    16     5     1    1
    17     5     6    1
    18     5     9    1
    19     1     2    2
    20     6     8    1
    21    15     9   ar
    22    15    13   ar
    23     9    10   ar
    24    13    12   ar
    25    10    11   ar
    26    12    11   ar
    27    12    14    1
