@<TRIPOS>MOLECULE
ZINC49921473_replica-1.pdb
 25 27 0 0 0
SMALL
GASTEIGER

@<TRIPOS>ATOM
      1  C11       -1.7030   30.5950   55.9730 C.3     0  <0>0        0.1344
      2  C10       -3.0640   30.6900   55.2790 C.3     0  <0>0        0.0550
      3  C9        -2.8810   30.4840   53.7730 C.3     0  <0>0        0.0899
      4  N1        -1.5070   30.0530   53.5020 N.pl3   0  <0>0       -0.3326
      5  H11       -0.7690   30.6630   53.6550 H       0  <0>0        0.1468
      6  C5        -1.2600   28.7640   53.0250 C.ar    0  <0>0        0.0443
      7  C4        -1.7190   28.3870   51.7680 C.ar    0  <0>0        0.0140
      8  C3        -1.4730   27.1110   51.3000 C.ar    0  <0>0       -0.0033
      9  C2        -0.7700   26.2110   52.0780 C.ar    0  <0>0       -0.0257
     10  C1        -0.5030   24.8200   51.5620 C.3     0  <0>0        0.0307
     11  C7        -0.3170   26.5800   53.3300 C.ar    0  <0>0       -0.0246
     12  C6        -0.5550   27.8560   53.8030 C.ar    0  <0>0        0.0097
     13  C8         0.4440   25.5930   54.1780 C.3     0  <0>0        0.0307
     14  C12       -1.7780   29.5820   57.0870 C.ar    0  <0>0        0.0040
     15  C17       -1.0290   29.7540   58.2310 C.ar    0  <0>0       -0.0065
     16  C16       -1.0960   28.8290   59.2650 C.ar    0  <0>0       -0.0264
     17  C15       -1.9140   27.7290   59.1430 C.ar    0  <0>0       -0.0262
     18  C18       -0.2440   29.0760   60.4820 C.3     0  <0>0        0.0260
     19  C14       -2.6630   27.5540   57.9880 C.ar    0  <0>0       -0.0048
     20  C21       -2.0400   26.6890   60.2250 C.3     0  <0>0        0.0260
     21  C13       -2.5970   28.4740   56.9620 C.ar    0  <0>0       -0.0023
     22  C20       -0.8670   26.7830   61.1990 C.3     0  <0>0        0.0050
     23  C19       -0.7360   28.2390   61.6620 C.3     0  <0>0        0.0050
     24  O1        -1.3550   31.8720   56.5130 O.3     0  <0>0       -0.3800
     25  H27       -0.4200   32.0990   56.4150 H       0  <0>0        0.2108
@<TRIPOS>BOND
     1     8     7   ar
     2     8     9   ar
     3    10     9    1
     4     7     6   ar
     5     9    11   ar
     6     6     4    1
     7     6    12   ar
     8    11    12   ar
     9    11    13    1
    10     4     5    1
    11     4     3    1
    12     3     2    1
    13     2     1    1
    14     1    24    1
    15     1    14    1
    16    25    24    1
    17    21    14   ar
    18    21    19   ar
    19    14    15   ar
    20    19    17   ar
    21    15    16   ar
    22    17    16   ar
    23    17    20    1
    24    16    18    1
    25    20    22    1
    26    18    23    1
    27    22    23    1
