@<TRIPOS>MOLECULE
ZINC44825847_replica-1.pdb
 21 22 0 0 0
SMALL
GASTEIGER

@<TRIPOS>ATOM
      1  C4        -0.6160   28.9060   54.7010 C.3     0  <0>0        0.1478
      2  C8        -1.4680   28.4440   55.8090 C.1     0  <0>0        0.0799
      3  N1        -2.1260   28.0870   56.6640 N.1     0  <0>0       -0.1954
      4  C3         0.5950   27.9790   54.5680 C.3     0  <0>0        0.0229
      5  C2         0.5300   26.8990   55.6500 C.3     0  <0>0        0.0015
      6  C1         0.6040   25.5180   54.9950 C.3     0  <0>0        0.0000
      7  C5        -1.4180   28.8880   53.3990 C.3     0  <0>0        0.0229
      8  C6        -1.0050   27.6770   52.5610 C.3     0  <0>0        0.0015
      9  C7        -1.6980   27.7360   51.1990 C.3     0  <0>0        0.0000
     10  C9        -0.1450   30.3090   54.9820 C.2     0  <0>0        0.2406
     11  O1        -0.5140   31.2250   54.2780 O.2     0  <0>0       -0.2736
     12  N2         0.6860   30.5480   56.0160 N.am    0  <0>0       -0.2537
     13  H15        0.9800   29.8150   56.5800 H       0  <0>0        0.1577
     14  C10        1.1190   31.8420   56.2760 C.2     0  <0>0        0.2126
     15  S1         0.3850   33.0230   57.2250 S.3     0  <0>0       -0.0610
     16  C12        1.5970   34.3010   56.9930 C.3     0  <0>0        0.1034
     17  C11        2.4950   33.7070   56.1740 C.2     0  <0>0        0.0989
     18  C13        1.9870   35.7070   57.3340 C.3     0  <0>0        0.0185
     19  N3         2.1990   32.4440   55.8380 N.2     0  <0>0       -0.3885
     20  C15        3.6060   34.7100   55.8740 C.3     0  <0>0        0.0554
     21  C14        3.4840   35.7990   56.9590 C.3     0  <0>0        0.0084
@<TRIPOS>BOND
     1     9     8    1
     2     8     7    1
     3     7     1    1
     4    11    10    2
     5     4     1    1
     6     4     5    1
     7     1    10    1
     8     1     2    1
     9    10    12   am
    10     6     5    1
    11     2     3    3
    12    19    17    2
    13    19    14    2
    14    20    17    1
    15    20    21    1
    16    12    14    1
    17    12    13    1
    18    17    16    1
    19    14    15    1
    20    21    18    1
    21    16    15    1
    22    16    18    1
