@<TRIPOS>MOLECULE
ZINC61495347_replica-1.pdb
 17 18 0 0 0
SMALL
GASTEIGER

@<TRIPOS>ATOM
      1  C4        11.6500   33.0700   62.3700 C.ar    0  <0>0        0.2366
      2  N1        10.6040   32.3610   62.0510 N.ar    0  <0>0       -0.1105
      3  N2         9.8420   33.0440   61.2710 N.ar    0  <0>0       -0.1071
      4  C5        10.3810   34.2230   61.0640 C.ar    0  <0>0        0.2518
      5  O1        11.5340   34.2640   61.7600 O.2     0  <0>0       -0.4186
      6  C6         9.8250   35.3060   60.2250 C.ar    0  <0>0        0.0830
      7  C11        9.6900   36.5970   60.7440 C.ar    0  <0>0        0.1447
      8  C10        9.1740   37.6050   59.9510 C.ar    0  <0>0        0.0303
      9  F1        10.0670   36.8590   62.0140 F       0  <0>0       -0.2040
     10  C9         8.7820   37.3370   58.6530 C.ar    0  <0>0        0.0090
     11  C8         8.9080   36.0580   58.1350 C.ar    0  <0>0        0.0349
     12  C7         9.4270   35.0430   58.9140 C.ar    0  <0>0        0.0137
     13 Br          8.3680   35.7030   56.3590 Br      0  <0>0       -0.0490
     14  C3        12.7820   32.6350   63.2650 C.3     0  <0>0        0.1348
     15 Br         14.4110   33.6270   62.7870 Br      0  <0>0       -0.0717
     16  C2        13.0260   31.1360   63.0850 C.3     0  <0>0        0.0208
     17  C1        12.6100   30.3950   64.3570 C.3     0  <0>0        0.0014
@<TRIPOS>BOND
     1    13    11    1
     2    11    10   ar
     3    11    12   ar
     4    10     8   ar
     5    12     6   ar
     6     8     7   ar
     7     6     7   ar
     8     6     4    1
     9     7     9    1
    10     4     3   ar
    11     4     5   ar
    12     3     2   ar
    13     5     1   ar
    14     2     1   ar
    15     1    14    1
    16    15    14    1
    17    16    14    1
    18    16    17    1
