@<TRIPOS>MOLECULE
ZINC57901906_replica-1.pdb
 21 22 0 0 0
SMALL
GASTEIGER

@<TRIPOS>ATOM
      1  C10       -1.6500   29.6550   56.1480 C.3     0  <0>0        0.0562
      2  C11       -2.6140   30.8250   55.9420 C.3     0  <0>0        0.0079
      3  C12       -2.4000   28.3360   55.9520 C.3     0  <0>0        0.0079
      4  C9        -0.5100   29.7490   55.1320 C.3     0  <0>0        0.0328
      5  C5        -0.5400   28.5430   54.2300 C.ar    0  <0>0       -0.0297
      6  C4        -1.2730   28.5750   53.0580 C.ar    0  <0>0       -0.0264
      7  C3        -1.3000   27.4690   52.2300 C.ar    0  <0>0       -0.0088
      8  C17       -2.0400   29.8160   52.6820 C.3     0  <0>0        0.0307
      9  C2        -0.5940   26.3310   52.5730 C.ar    0  <0>0       -0.0225
     10  C1        -0.6240   25.1240   51.6700 C.3     0  <0>0        0.0310
     11  C7         0.1330   26.2970   53.7480 C.ar    0  <0>0       -0.0088
     12  C6         0.1640   27.4050   54.5740 C.ar    0  <0>0       -0.0264
     13  C8         0.9620   27.3690   55.8520 C.3     0  <0>0        0.0307
     14  C13       -1.0860   29.7110   57.5450 C.2     0  <0>0        0.1341
     15  S1        -1.3860   28.6620   58.8210 S.3     0  <0>0       -0.0789
     16  C15       -0.4160   29.3750   59.9940 C.3     0  <0>0        0.1300
     17  C14        0.1200   30.4540   59.3180 C.2     0  <0>0        0.1996
     18  N1        -0.2600   30.5880   58.0420 N.2     0  <0>0       -0.3968
     19  C16        1.0490   31.3940   59.9590 C.2     0  <0>0        0.4136
     20  O1         1.0990   32.5580   59.5830 O.co2   0  <0>0       -0.2380
     21  O2         1.7720   31.0130   60.8710 O.co2   0  <0>0       -0.2380
@<TRIPOS>BOND
     1    10     9    1
     2     7     9   ar
     3     7     6   ar
     4     9    11   ar
     5     8     6    1
     6     6     5   ar
     7    11    12   ar
     8     5    12   ar
     9     5     4    1
    10    12    13    1
    11     4     1    1
    12     2     1    1
    13     3     1    1
    14     1    14    1
    15    14    18    2
    16    14    15    1
    17    18    17    2
    18    15    16    1
    19    17    19    1
    20    17    16    1
    21    20    19   ar
    22    19    21   ar
