@<TRIPOS>MOLECULE
ZINC20366375_replica-1.pdb
 21 21 0 0 0
SMALL
GASTEIGER

@<TRIPOS>ATOM
      1  C1        -1.2860   29.3000   56.9920 C.3     0  <0>0        0.0311
      2  C2        -0.5920   29.9920   55.8160 C.3     0  <0>0        0.1466
      3  C3        -0.0250   31.3100   56.2740 C.2     0  <0>0        0.2403
      4  O1         0.7790   31.8970   55.5810 O.2     0  <0>0       -0.2733
      5  N1        -0.4100   31.8380   57.4530 N.am    0  <0>0       -0.3030
      6  H5        -1.0520   31.3680   58.0070 H       0  <0>0        0.1495
      7  C4         0.1430   33.1200   57.8970 C.3     0  <0>0        0.0894
      8  C5         1.2160   32.8720   58.9590 C.3     0  <0>0        0.0212
      9  C6         1.3620   34.1160   59.8360 C.3     0  <0>0        0.0017
     10  C7         1.3770   35.3660   58.9510 C.3     0  <0>0        0.0001
     11  C8         0.1860   34.1950   60.8100 C.3     0  <0>0        0.0001
     12  N2         0.4910   29.1400   55.3190 N.pl3   0  <0>0       -0.3270
     13  H17        1.4070   29.3200   55.5780 H       0  <0>0        0.1472
     14  C9         0.2030   28.0690   54.4690 C.ar    0  <0>0        0.0458
     15  C14       -0.5470   28.2760   53.3180 C.ar    0  <0>0        0.0265
     16  C13       -0.8240   27.2160   52.4750 C.ar    0  <0>0        0.0694
     17  C12       -0.3670   25.9460   52.7850 C.ar    0  <0>0        0.0683
     18 Cl         -1.7540   27.4750   51.0330 Cl      0  <0>0       -0.0813
     19  C11        0.3760   25.7360   53.9340 C.ar    0  <0>0        0.0135
     20 Cl         -0.7220   24.6150   51.7290 Cl      0  <0>0       -0.0814
     21  C10        0.6610   26.7940   54.7760 C.ar    0  <0>0        0.0152
@<TRIPOS>BOND
     1    18    16    1
     2    20    17    1
     3    16    17   ar
     4    16    15   ar
     5    17    19   ar
     6    15    14   ar
     7    19    21   ar
     8    14    21   ar
     9    14    12    1
    10    12    13    1
    11    12     2    1
    12     4     3    2
    13     2     3    1
    14     2     1    1
    15     3     5   am
    16     5     7    1
    17     5     6    1
    18     7     8    1
    19    10     9    1
    20     8     9    1
    21     9    11    1
