@<TRIPOS>MOLECULE
ZINC58846759_replica-1.pdb
 35 39 0 0 0
SMALL
GASTEIGER

@<TRIPOS>ATOM
      1  C10       -0.2940   29.7890   57.7960 C.ar    0  <0>0        0.1249
      2  C11       -1.1030   30.4430   56.8850 C.ar    0  <0>0        0.0214
      3  C12       -0.9700   31.8040   56.7040 C.ar    0  <0>0        0.0154
      4  C13       -0.0260   32.5170   57.4360 C.ar    0  <0>0        0.0408
      5  C14        0.7770   31.8650   58.3590 C.ar    0  <0>0       -0.0080
      6  C15        0.6360   30.4960   58.5310 C.ar    0  <0>0        0.0171
      7  C16        1.7720   32.6020   59.1900 C.3     0  <0>0        0.0255
      8  C17        3.1830   32.3970   58.7010 C.3     0  <0>0        0.0045
      9  C18        3.8800   33.4960   58.8520 C.3     0  <0>0        0.0004
     10  C19        3.0310   34.5930   59.4570 C.3     0  <0>0        0.0023
     11  C20        1.5810   34.1170   59.2140 C.3     0  <0>0        0.0262
     12  C21        1.1090   34.6930   57.8960 C.3     0  <0>0        0.0921
     13  N2         0.1100   33.8850   57.2290 N.pl3   0  <0>0       -0.3308
     14  H23       -0.4780   34.3140   56.5880 H       0  <0>0        0.1471
     15  S1        -0.4560   28.0490   58.0250 S.O2    0  <0>0        0.0736
     16  O1        -1.7250   27.6860   57.4980 O.2     0  <0>0       -0.1499
     17  O2        -0.0850   27.7800   59.3700 O.2     0  <0>0       -0.1499
     18  N1         0.6810   27.3210   57.0650 N.pl3   0  <0>0       -0.2150
     19  H15        1.5460   27.0840   57.4340 H       0  <0>0        0.1737
     20  C7         0.3940   27.0510   55.7250 C.ar    0  <0>0        0.0648
     21  C6        -0.0330   28.0730   54.8850 C.ar    0  <0>0        0.0155
     22  C5        -0.3150   27.8020   53.5600 C.ar    0  <0>0       -0.0030
     23  C4        -0.1730   26.5170   53.0710 C.ar    0  <0>0       -0.0224
     24  C9         0.2470   25.4980   53.9050 C.ar    0  <0>0       -0.0030
     25  C8         0.5360   25.7620   55.2290 C.ar    0  <0>0        0.0155
     26  C2        -0.4810   26.2250   51.6240 C.3     0  <0>0        0.0224
     27  C1        -0.8680   24.7530   51.4720 C.3     0  <0>0        0.0047
     28  C3        -1.6420   27.1080   51.1620 C.3     0  <0>0        0.0047
     29  C22        2.3040   34.8680   56.9940 C.ar    0  <0>0       -0.0044
     30  C27        3.0980   35.9930   57.1100 C.ar    0  <0>0       -0.0004
     31  C26        4.1980   36.1510   56.2870 C.ar    0  <0>0        0.0294
     32  C25        4.4970   35.1880   55.3400 C.ar    0  <0>0        0.1401
     33  C24        3.6970   34.0640   55.2210 C.ar    0  <0>0        0.0294
     34  F1         5.5690   35.3440   54.5320 F       0  <0>0       -0.2042
     35  C23        2.6020   33.9040   56.0470 C.ar    0  <0>0       -0.0004
@<TRIPOS>BOND
     1    28    26    1
     2    27    26    1
     3    26    23    1
     4    23    22   ar
     5    23    24   ar
     6    22    21   ar
     7    24    25   ar
     8    34    32    1
     9    21    20   ar
    10    33    32   ar
    11    33    35   ar
    12    25    20   ar
    13    32    31   ar
    14    20    18    1
    15    35    29   ar
    16    31    30   ar
    17    14    13    1
    18     3     2   ar
    19     3     4   ar
    20     2     1   ar
    21    29    30   ar
    22    29    12    1
    23    18    19    1
    24    18    15    1
    25    13     4    1
    26    13    12    1
    27     4     5   ar
    28    16    15    2
    29     1    15    1
    30     1     6   ar
    31    12    11    1
    32    15    17    2
    33     5     6   ar
    34     5     7    1
    35     8     9    1
    36     8     7    1
    37     9    10    1
    38     7    11    1
    39    11    10    1
