@<TRIPOS>MOLECULE
ZINC04369590_replica-1.pdb
 24 27 0 0 0
SMALL
GASTEIGER

@<TRIPOS>ATOM
      1  C3         2.8490   34.1740   57.1560 C.3     0  <0>0        0.1686
      2  C4         3.4150   33.0390   56.2600 C.3     0  <0>0        0.0436
      3  C5         4.9170   32.9090   56.6260 C.3     0  <0>0        0.0038
      4  C6         5.0910   33.8500   57.8220 C.3     0  <0>0        0.0035
      5  C7         4.1190   35.0010   57.4900 C.3     0  <0>0        0.0369
      6  C8         3.9440   35.9180   58.6750 C.3     0  <0>0        0.0035
      7  C9         5.2520   36.0570   59.4650 C.3     0  <0>0        0.0001
      8  C10        6.4640   35.7840   58.5860 C.3     0  <0>0        0.0004
      9  C11        6.4750   34.3190   58.1430 C.3     0  <0>0        0.0001
     10  C12        7.4860   34.1150   57.0210 C.3     0  <0>0        0.0000
     11  C13        8.7900   34.8430   57.3850 C.3     0  <0>0        0.0000
     12  C14        8.8240   35.0650   58.8910 C.3     0  <0>0        0.0008
     13  C15        7.7730   36.0960   59.3060 C.3     0  <0>0        0.0069
     14  C16        7.6260   36.0330   60.8300 C.3     0  <0>0        0.0645
     15  C17        8.9980   36.3280   61.4080 C.2     0  <0>0        0.1506
     16  O3         9.1380   37.1950   62.2390 O.2     0  <0>0       -0.2961
     17  C18       10.1830   35.5210   60.9330 C.3     0  <0>0        0.0645
     18  C19       10.2020   35.4550   59.4010 C.3     0  <0>0        0.0078
     19  C20        8.2160   37.5060   58.9070 C.3     0  <0>0        0.0004
     20  C21        4.5150   35.7760   56.2320 C.3     0  <0>0        0.0036
     21  O2         1.8990   34.9880   56.4260 O.3     0  <0>0       -0.4523
     22  C2         0.7050   35.1960   57.0030 C.2     0  <0>0        0.3174
     23  C1         0.2630   34.3290   58.1540 C.3     0  <0>0        0.1212
     24  O1        -0.0150   36.0780   56.6000 O.2     0  <0>0       -0.2501
@<TRIPOS>BOND
     1    20     5    1
     2     2     3    1
     3     2     1    1
     4    21    22    1
     5    21     1    1
     6    24    22    2
     7     3     4    1
     8    22    23    1
     9    10    11    1
    10    10     9    1
    11     1     5    1
    12    11    12    1
    13     5     4    1
    14     5     6    1
    15     4     9    1
    16     9     8    1
    17     8    13    1
    18     8     7    1
    19     6     7    1
    20    12    13    1
    21    12    18    1
    22    19    13    1
    23    13    14    1
    24    18    17    1
    25    14    15    1
    26    17    15    1
    27    15    16    2
