@<TRIPOS>MOLECULE
ZINC38321101_replica-1.pdb
 26 29 0 0 0
SMALL
GASTEIGER

@<TRIPOS>ATOM
      1  C7         3.8600   36.0980   56.2190 C.2     0  <0>0        0.0115
      2  C8         5.0970   36.0070   56.7690 C.ar    0  <0>0        0.0912
      3  C9         5.5710   35.1490   57.8660 C.ar    0  <0>0        0.2895
      4  O1         4.8220   34.3750   58.4300 O.2     0  <0>0       -0.2645
      5  N1         6.8600   35.2520   58.2240 N.ar    0  <0>0       -0.1500
      6  C10        7.6610   36.1380   57.5600 C.ar    0  <0>0        0.2606
      7  S1         6.5950   36.8880   56.3510 S.2     0  <0>0       -0.0299
      8  N2         8.8680   36.0910   58.0480 N.2     0  <0>0       -0.3225
      9  C11        8.9100   35.1860   59.0410 C.1     0  <0>0        0.1086
     10  N3         7.7200   34.6530   59.1850 N.2     0  <0>0       -0.0937
     11  C12       10.1020   34.8490   59.8390 C.2     0  <0>0        0.0859
     12  C13        9.9970   34.0100   60.8820 C.2     0  <0>0        0.0118
     13  C14       11.1890   33.6740   61.6800 C.ar    0  <0>0        0.0008
     14  C19       12.3070   34.5140   61.6570 C.ar    0  <0>0        0.0009
     15  C18       13.4170   34.1960   62.4120 C.ar    0  <0>0        0.0114
     16  C17       13.4310   33.0450   63.1800 C.ar    0  <0>0        0.0577
     17  C16       12.3290   32.2060   63.2020 C.ar    0  <0>0        0.0114
     18 Cl         14.8360   32.6500   64.1200 Cl      0  <0>0       -0.0822
     19  C15       11.2110   32.5140   62.4580 C.ar    0  <0>0        0.0009
     20  C3         2.7240   35.4060   56.8430 C.ar    0  <0>0        0.0011
     21  C2         2.0760   35.9710   57.9480 C.ar    0  <0>0        0.0000
     22  C1         1.0120   35.3150   58.5290 C.ar    0  <0>0        0.0005
     23  C6         0.5840   34.0990   58.0230 C.ar    0  <0>0        0.0067
     24  C5         1.2190   33.5320   56.9310 C.ar    0  <0>0        0.0346
     25  C4         2.2860   34.1760   56.3370 C.ar    0  <0>0        0.0067
     26 Br          0.6230   31.8720   56.2500 Br      0  <0>0       -0.0490
@<TRIPOS>BOND
     1     1     2    2
     2     1    20    1
     3    26    24    1
     4    25    20   ar
     5    25    24   ar
     6     7     2   ar
     7     7     6   ar
     8     2     3   ar
     9    20    21   ar
    10    24    23   ar
    11     6     8    2
    12     6     5   ar
    13     3     5   ar
    14     3     4    2
    15    21    22   ar
    16    23    22   ar
    17     8     9    2
    18     5    10    1
    19     9    10    2
    20     9    11    1
    21    11    12    2
    22    12    13    1
    23    14    13   ar
    24    14    15   ar
    25    13    19   ar
    26    15    16   ar
    27    19    17   ar
    28    16    17   ar
    29    16    18    1
