@<TRIPOS>MOLECULE
ZINC58867671_replica-1.pdb
 21 24 0 0 0
SMALL
GASTEIGER

@<TRIPOS>ATOM
      1  C8        -1.2270   29.9550   55.1730 C.1     0  <0>0        0.1588
      2  N1        -0.5460   28.9600   55.7180 N.2     0  <0>0       -0.3446
      3  C9        -0.2830   27.8180   55.0020 C.2     0  <0>0        0.1277
      4  C10        0.4230   26.7520   55.5250 C.3     0  <0>0        0.0860
      5  C11        0.6600   25.6210   54.7510 C.2     0  <0>0       -0.0186
      6  C12        0.2090   25.5260   53.4660 C.2     0  <0>0       -0.0040
      7  C13       -0.5140   26.5890   52.8960 C.2     0  <0>0        0.0037
      8  C14       -0.7580   27.7390   53.6740 C.2     0  <0>0        0.0533
      9  C15       -1.4800   28.8260   53.1360 C.2     0  <0>0        0.1277
     10  C16       -1.9430   28.7450   51.8360 C.3     0  <0>0        0.0860
     11  C17       -1.6990   27.6060   51.0770 C.2     0  <0>0       -0.0186
     12  C18       -1.0020   26.5450   51.5790 C.2     0  <0>0       -0.0040
     13  N2        -1.6950   29.9220   53.9350 N.2     0  <0>0       -0.3446
     14  C7        -1.4870   31.1850   56.0040 C.3     0  <0>0        0.3288
     15  O1        -0.2710   31.9210   56.1560 O.3     0  <0>0       -0.4580
     16  C4         0.0770   32.2800   57.4190 C.ar    0  <0>0        0.1402
     17  C3         0.3750   31.3060   58.3610 C.ar    0  <0>0        0.0369
     18  C2         0.7310   31.6730   59.6440 C.ar    0  <0>0        0.0031
     19  C1         0.7890   33.0110   59.9920 C.ar    0  <0>0        0.0002
     20  C6         0.4920   33.9830   59.0550 C.ar    0  <0>0        0.0031
     21  C5         0.1360   33.6220   57.7700 C.ar    0  <0>0        0.0369
@<TRIPOS>BOND
     1    11    12    2
     2    11    10    1
     3    12     7    1
     4    10     9    1
     5     7     6    1
     6     7     8    2
     7     9     8    1
     8     9    13    2
     9     6     5    2
    10     8     3    1
    11    13     1    2
    12     5     4    1
    13     3     4    1
    14     3     2    2
    15     1     2    2
    16     1    14    1
    17    14    15    1
    18    15    16    1
    19    16    21   ar
    20    16    17   ar
    21    21    20   ar
    22    17    18   ar
    23    20    19   ar
    24    18    19   ar
