@<TRIPOS>MOLECULE
ZINC58122632_replica-1.pdb
 26 28 0 0 0
SMALL
GASTEIGER

@<TRIPOS>ATOM
      1  C11        0.2070   28.2350   57.1000 C.3     0  <0>0        0.1232
      2  C8         0.0060   27.7100   55.7020 C.ar    0  <0>0        0.0002
      3  C7        -0.6280   28.4920   54.7540 C.ar    0  <0>0       -0.0027
      4  C6        -0.8120   28.0110   53.4710 C.ar    0  <0>0       -0.0045
      5  C5        -0.3610   26.7480   53.1350 C.ar    0  <0>0       -0.0225
      6  C10        0.2680   25.9640   54.0840 C.ar    0  <0>0       -0.0045
      7  C9         0.4550   26.4460   55.3660 C.ar    0  <0>0       -0.0027
      8  C3        -0.5610   26.2240   51.7370 C.3     0  <0>0        0.0223
      9  C4        -0.4540   24.6970   51.7450 C.3     0  <0>0        0.0047
     10  C2        -1.9450   26.6350   51.2310 C.3     0  <0>0        0.0044
     11  C1        -1.8520   27.9970   50.5390 C.3     0  <0>0        0.0003
     12  C12       -0.8160   27.6190   58.0180 C.ar    0  <0>0        0.0292
     13  S1        -0.5740   26.8180   59.5950 S.2     0  <0>0       -0.0888
     14  C15       -2.2810   26.4190   59.9390 C.ar    0  <0>0        0.0352
     15  C14       -2.9100   26.9090   58.8430 C.ar    0  <0>0        0.0072
     16  C13       -2.1600   27.5240   57.8580 C.ar    0  <0>0        0.0046
     17  N1         0.0520   29.6910   57.1020 N.am    0  <0>0       -0.2935
     18  C16        0.8620   30.4540   57.8620 C.2     0  <0>0        0.2620
     19  O1         1.7230   29.9330   58.5470 O.2     0  <0>0       -0.2686
     20  H19       -0.6340   30.1060   56.5570 H       0  <0>0        0.1504
     21  C17        0.7070   31.9130   57.8650 C.ar    0  <0>0        0.1108
     22  N2         0.4800   32.7040   58.9690 N.ar    0  <0>0       -0.3484
     23  C20        0.3980   33.9960   58.5670 C.ar    0  <0>0        0.0725
     24  H3         0.3950   32.3900   59.8830 H       0  <0>0        0.1661
     25  C19        0.5600   34.0460   57.2220 C.ar    0  <0>0        0.0201
     26  C18        0.7560   32.7400   56.7640 C.ar    0  <0>0        0.0231
@<TRIPOS>BOND
     1    11    10    1
     2    10     8    1
     3     8     9    1
     4     8     5    1
     5     5     4   ar
     6     5     6   ar
     7     4     3   ar
     8     6     7   ar
     9     3     2   ar
    10     7     2   ar
    11     2     1    1
    12    20    17    1
    13    26    25   ar
    14    26    21   ar
    15     1    17    1
    16     1    12    1
    17    17    18   am
    18    25    23   ar
    19    16    12   ar
    20    16    15   ar
    21    18    21    1
    22    18    19    2
    23    21    22   ar
    24    12    13   ar
    25    23    22   ar
    26    15    14   ar
    27    22    24    1
    28    13    14   ar
