@<TRIPOS>MOLECULE
ZINC30880541_replica-1.pdb
 30 31 0 0 0
SMALL
GASTEIGER

@<TRIPOS>ATOM
      1  C1         7.0220   32.2980   60.2140 C.3     0  <0>0        0.0260
      2  C2         7.3970   33.6900   59.7790 C.2     0  <0>0       -0.0480
      3  C3         8.3710   34.2780   60.3960 C.2     0  <0>0       -0.0332
      4  C4         8.8510   35.6650   60.0810 C.3     0  <0>0        0.0410
      5  C5         8.3430   36.0990   58.7060 C.3     0  <0>0        0.0060
      6  C6         6.8360   35.8240   58.6360 C.3     0  <0>0        0.0049
      7  C7         6.6180   34.3100   58.6550 C.3     0  <0>0        0.0271
      8  C16       10.3810   35.6850   60.0830 C.3     0  <0>0        0.0936
      9  N2        10.8830   34.6000   60.9290 N.am    0  <0>0       -0.3040
     10  C17       11.5800   34.8840   62.0480 C.2     0  <0>0        0.2220
     11  O3        11.7920   36.0380   62.3540 O.2     0  <0>0       -0.2751
     12  H29       10.6910   33.5530   60.6530 H       0  <0>0        0.1494
     13  C18       12.0960   33.7670   62.9190 C.3     0  <0>0        0.0765
     14  C23       11.2300   32.5230   62.7170 C.3     0  <0>0        0.0091
     15  C22       11.7530   31.3880   63.6000 C.3     0  <0>0        0.0005
     16  C21       13.2010   31.0710   63.2190 C.3     0  <0>0        0.0000
     17  C20       14.0660   32.3160   63.4210 C.3     0  <0>0        0.0005
     18  C19       13.5420   33.4490   62.5370 C.3     0  <0>0        0.0091
     19  C13        8.6080   37.5930   58.5080 C.3     0  <0>0        0.0004
     20  C14        8.5140   37.9360   57.0200 C.3     0  <0>0        0.0000
     21  C15        7.5670   38.4030   59.2840 C.3     0  <0>0        0.0000
     22  C8         7.0840   33.7140   57.3260 C.3     0  <0>0        0.0890
     23  C9         6.1260   34.1130   56.2330 C.2     0  <0>0        0.2228
     24  O1         6.4970   34.8430   55.3380 O.2     0  <0>0       -0.2751
     25  N1         4.8580   33.6560   56.2480 N.am    0  <0>0       -0.3020
     26  H12        4.5210   32.9940   57.0590 H       0  <0>0        0.1495
     27  C10        3.9290   34.0390   55.1820 C.3     0  <0>0        0.1216
     28  C11        2.7140   34.7410   55.7920 C.3     0  <0>0        0.1634
     29  O2         3.1290   35.9650   56.4030 O.3     0  <0>0       -0.3493
     30  C12        2.8940   36.0190   57.8120 C.3     0  <0>0        0.1742
@<TRIPOS>BOND
     1    27    28    1
     2    27    25    1
     3    24    23    2
     4    28    29    1
     5    23    25   am
     6    23    22    1
     7    25    26    1
     8    29    30    1
     9    20    19    1
    10    22     7    1
    11    19     5    1
    12    19    21    1
    13     6     7    1
    14     6     5    1
    15     7     2    1
    16     5     4    1
    17     2     1    1
    18     2     3    2
    19     4     8    1
    20     4     3    1
    21     8     9    1
    22    12     9    1
    23     9    10   am
    24    10    11    2
    25    10    13    1
    26    18    13    1
    27    18    17    1
    28    14    13    1
    29    14    15    1
    30    16    17    1
    31    16    15    1
