@<TRIPOS>MOLECULE
ZINC08893035_replica-1.pdb
 32 35 0 0 0
SMALL
GASTEIGER

@<TRIPOS>ATOM
      1  C9         1.1510   30.6850   57.9630 C.ar    0  <0>0        0.0632
      2  C10        0.5880   30.1280   59.1200 C.ar    0  <0>0        0.0510
      3  C11        0.6480   30.8280   60.3240 C.ar    0  <0>0        0.0158
      4  C12        1.2600   32.0650   60.3720 C.ar    0  <0>0        0.0587
      5  C13        1.8150   32.6140   59.2280 C.ar    0  <0>0        0.0240
      6  C14        1.7620   31.9310   58.0280 C.ar    0  <0>0        0.0720
      7 Cl          2.4600   32.6280   56.6000 Cl      0  <0>0       -0.0809
      8 Cl          1.3340   32.9360   61.8730 Cl      0  <0>0       -0.0822
      9  N2         1.0980   29.9930   56.7530 N.am    0  <0>0       -0.2949
     10  C8         0.1180   30.2590   55.8660 C.2     0  <0>0        0.1411
     11  S1        -1.0130   31.5020   56.1890 S.2     0  <0>0       -0.0182
     12  H6         1.7660   29.3180   56.5500 H       0  <0>0        0.1539
     13  N1         0.0310   29.5480   54.7250 N.am    0  <0>0       -0.2635
     14  C7        -0.7400   28.4430   54.6780 C.2     0  <0>0        0.2529
     15  O1        -1.3550   28.0870   55.6640 O.2     0  <0>0       -0.2697
     16  H5         0.5220   29.8310   53.9380 H       0  <0>0        0.1568
     17  C5        -0.8350   27.6630   53.4280 C.ar    0  <0>0        0.0811
     18  C4        -0.2620   26.3890   53.3490 C.ar    0  <0>0        0.1445
     19  C3        -0.3570   25.6650   52.1730 C.ar    0  <0>0        0.0298
     20  F1         0.3820   25.8680   54.4160 F       0  <0>0       -0.2040
     21  C2        -1.0160   26.1980   51.0820 C.ar    0  <0>0        0.0023
     22  C1        -1.5850   27.4590   51.1550 C.ar    0  <0>0        0.0003
     23  C6        -1.5040   28.1900   52.3200 C.ar    0  <0>0        0.0068
     24  C15       -0.0640   28.8030   59.0630 C.2     0  <0>0        0.1623
     25  S2        -1.6130   28.2830   59.7880 S.3     0  <0>0       -0.0531
     26  C21       -1.5730   26.6030   59.2140 C.2     0  <0>0        0.0574
     27  C16       -0.3520   26.5550   58.5020 C.2     0  <0>0        0.1374
     28  C20       -2.4010   25.5130   59.3360 C.2     0  <0>0       -0.0123
     29  N3         0.3510   27.7040   58.4720 N.2     0  <0>0       -0.3948
     30  C17       -0.0220   25.3120   57.9130 C.2     0  <0>0        0.0283
     31  C18       -0.8480   24.2390   58.0390 C.2     0  <0>0       -0.0188
     32  C19       -2.0410   24.3170   58.7450 C.3     0  <0>0        0.0527
@<TRIPOS>BOND
     1    21    22   ar
     2    21    19   ar
     3    22    23   ar
     4    19    18   ar
     5    23    17   ar
     6    18    17   ar
     7    18    20    1
     8    17    14    1
     9    16    13    1
    10    14    13   am
    11    14    15    2
    12    13    10    1
    13    10    11    2
    14    10     9    1
    15    12     9    1
    16     7     6    1
    17     9     1    1
    18    30    31    2
    19    30    27    1
    20     1     6   ar
    21     1     2   ar
    22     6     5   ar
    23    31    32    1
    24    29    27    2
    25    29    24    2
    26    27    26    1
    27    32    28    1
    28    24     2    1
    29    24    25    1
    30     2     3   ar
    31    26    28    2
    32    26    25    1
    33     5     4   ar
    34     3     4   ar
    35     4     8    1
