@<TRIPOS>MOLECULE
ZINC17194747_replica-1.pdb
 29 30 0 0 0
SMALL
GASTEIGER

@<TRIPOS>ATOM
      1  C5         6.3380   35.0020   57.8460 C.2     0  <0>0        0.0741
      2  N1         5.4000   35.9050   57.7930 N.2     0  <0>0       -0.1857
      3  C4         6.4220   34.0710   59.0280 C.3     0  <0>0        0.0246
      4  C3         6.2150   32.6300   58.5590 C.3     0  <0>0       -0.0711
      5  N3         7.2230   31.7680   59.2090 N.4     0  <0>0        0.3844
      6  C1         8.4120   31.6360   58.3410 C.3     0  <0>0       -0.1008
      7  C2         7.6120   32.3430   60.5140 C.3     0  <0>0       -0.1008
      8  H19        6.8180   30.8370   59.3620 H       0  <0>0       -0.0799
      9  C12        7.2790   34.8950   56.7920 C.2     0  <0>0        0.0161
     10  C13        8.5860   35.1290   57.0270 C.2     0  <0>0        0.0013
     11  C14        9.0020   35.7860   58.2770 C.ar    0  <0>0        0.0000
     12  C19        9.7960   35.0990   59.2020 C.ar    0  <0>0        0.0000
     13  C18       10.1810   35.7210   60.3700 C.ar    0  <0>0        0.0000
     14  C17        9.7850   37.0220   60.6300 C.ar    0  <0>0        0.0000
     15  C16        9.0010   37.7090   59.7190 C.ar    0  <0>0        0.0000
     16  C15        8.6110   37.1020   58.5440 C.ar    0  <0>0        0.0000
     17  N2         4.4350   35.9730   58.8060 N.pl3   0  <0>0       -0.2318
     18  H11        4.6410   36.4210   59.6410 H       0  <0>0        0.1746
     19  C6         3.1750   35.3990   58.6120 C.ar    0  <0>0        0.1245
     20  C11        2.3910   35.7880   57.5330 C.ar    0  <0>0        0.1866
     21  C10        1.1460   35.2130   57.3400 C.ar    0  <0>0        0.1983
     22  F1         2.8450   36.7230   56.6680 F       0  <0>0       -0.2003
     23  C9         0.6790   34.2540   58.2260 C.ar    0  <0>0        0.1992
     24  F2         0.3850   35.5870   56.2880 F       0  <0>0       -0.1993
     25  C8         1.4570   33.8690   59.3070 C.ar    0  <0>0        0.1983
     26  F3        -0.5360   33.6950   58.0360 F       0  <0>0       -0.1993
     27  C7         2.7020   34.4410   59.5040 C.ar    0  <0>0        0.1866
     28  F4         0.9990   32.9340   60.1680 F       0  <0>0       -0.1993
     29  F5         3.4600   34.0650   60.5580 F       0  <0>0       -0.2003
@<TRIPOS>BOND
     1    24    21    1
     2    22    20    1
     3     9    10    2
     4     9     1    1
     5    10    11    1
     6    21    20   ar
     7    21    23   ar
     8    20    19   ar
     9     2     1    2
    10     2    17    1
    11     1     3    1
    12    26    23    1
    13    23    25   ar
    14    11    16   ar
    15    11    12   ar
    16     6     5    1
    17    16    15   ar
    18     4     3    1
    19     4     5    1
    20    19    17    1
    21    19    27   ar
    22    17    18    1
    23    12    13   ar
    24     5     8    1
    25     5     7    1
    26    25    27   ar
    27    25    28    1
    28    27    29    1
    29    15    14   ar
    30    13    14   ar
