@<TRIPOS>MOLECULE
ZINC45327538_replica-1.pdb
 22 22 0 0 0
SMALL
GASTEIGER

@<TRIPOS>ATOM
      1  C13        7.9300   35.0360   58.8320 C.3     0  <0>0        0.1223
      2  C14        7.0010   34.8260   60.0300 C.3     0  <0>0        0.0314
      3  C15        8.2400   33.7360   58.2170 C.1     0  <0>0        0.0860
      4  N1         8.4800   32.7320   57.7420 N.1     0  <0>0       -0.1946
      5  C12        9.2260   35.7010   59.3020 C.3     0  <0>0        0.0291
      6  C11        9.3520   35.5540   60.8210 C.3     0  <0>0        0.0062
      7  C10       10.3790   36.5590   61.3460 C.3     0  <0>0        0.0474
      8  C9        11.4480   35.8210   62.1520 C.3     0  <0>0        0.2054
      9  O1        11.6350   34.5120   61.6110 O.3     0  <0>0       -0.4758
     10  C6        12.4680   33.6780   62.2860 C.ar    0  <0>0        0.1342
     11  C5        13.8060   34.0080   62.4420 C.ar    0  <0>0        0.0365
     12  C4        14.6500   33.1580   63.1290 C.ar    0  <0>0        0.0028
     13  C3        14.1630   31.9800   63.6630 C.ar    0  <0>0       -0.0044
     14  C2        12.8290   31.6490   63.5100 C.ar    0  <0>0       -0.0229
     15  C1        12.3020   30.3630   64.0930 C.3     0  <0>0        0.0308
     16  C7        11.9820   32.4910   62.8180 C.ar    0  <0>0        0.0082
     17  C8        10.5310   32.1260   62.6460 C.3     0  <0>0        0.0339
     18  N2         7.2680   35.9000   57.8450 N.3     0  <0>0       -0.2896
     19  H21        6.6920   35.3590   57.2180 H       0  <0>0        0.1240
     20  C16        8.2530   36.6970   57.1000 C.3     0  <0>0        0.0547
     21  C17        8.2830   36.2360   55.6420 C.3     0  <0>0        0.0171
     22  C18        7.8630   38.1750   57.1600 C.3     0  <0>0        0.0171
@<TRIPOS>BOND
     1    21    20    1
     2    20    22    1
     3    20    18    1
     4    19    18    1
     5     4     3    3
     6    18     1    1
     7     3     1    1
     8     1     5    1
     9     1     2    1
    10     5     6    1
    11     6     7    1
    12     7     8    1
    13     9     8    1
    14     9    10    1
    15    10    11   ar
    16    10    16   ar
    17    11    12   ar
    18    17    16    1
    19    16    14   ar
    20    12    13   ar
    21    14    13   ar
    22    14    15    1
