@<TRIPOS>MOLECULE
ZINC63715870_replica-1.pdb
 21 23 0 0 0
SMALL
GASTEIGER

@<TRIPOS>ATOM
      1  C7        10.3520   35.9950   60.4630 C.3     0  <0>0        0.1167
      2  N1        10.8170   34.7090   60.9910 N.am    0  <0>0       -0.2965
      3  C6        11.6100   34.6750   62.0800 C.2     0  <0>0        0.2518
      4  O1        11.9410   35.7120   62.6250 O.2     0  <0>0       -0.2696
      5  H6        10.5520   33.8830   60.5570 H       0  <0>0        0.1501
      6  C5        12.0750   33.3890   62.6070 C.ar    0  <0>0        0.0788
      7  C2        13.3700   32.9680   62.8690 C.ar    0  <0>0       -0.0109
      8  C1        14.5650   33.8530   62.6230 C.3     0  <0>0        0.0317
      9  C3        13.4940   31.6950   63.3720 C.ar    0  <0>0        0.0034
     10  C4        12.3770   30.9530   63.5690 C.ar    0  <0>0        0.0353
     11  S1        11.1230   31.9570   63.0790 S.2     0  <0>0       -0.0822
     12  C8         9.4860   35.7580   59.2530 C.ar    0  <0>0        0.0011
     13  C13        9.2410   34.4680   58.8220 C.ar    0  <0>0        0.0073
     14  C12        8.4430   34.2450   57.7140 C.ar    0  <0>0        0.0714
     15  C11        7.8970   35.3160   57.0270 C.ar    0  <0>0        0.1825
     16 Br          8.1040   32.4770   57.1340 Br      0  <0>0       -0.0457
     17  C10        8.1490   36.6160   57.4580 C.ar    0  <0>0        0.1767
     18  O2         7.0950   35.3700   55.9230 O.3     0  <0>0       -0.4341
     19  C9         8.9440   36.8320   58.5710 C.ar    0  <0>0        0.0376
     20  O3         7.5050   37.4850   56.6230 O.3     0  <0>0       -0.4346
     21  C14        6.5270   36.6930   55.9250 C.3     0  <0>0        0.4294
@<TRIPOS>BOND
     1    18    21    1
     2    18    15    1
     3    21    20    1
     4    20    17    1
     5    15    17   ar
     6    15    14   ar
     7    16    14    1
     8    17    19   ar
     9    14    13   ar
    10    19    12   ar
    11    13    12   ar
    12    12     1    1
    13     1     2    1
    14     5     2    1
    15     2     3   am
    16     3     6    1
    17     3     4    2
    18     6     7   ar
    19     6    11   ar
    20     8     7    1
    21     7     9   ar
    22    11    10   ar
    23     9    10   ar
