@<TRIPOS>MOLECULE
ZINC05297039_replica-1.pdb
 32 36 0 0 0
SMALL
GASTEIGER

@<TRIPOS>ATOM
      1  C11       -1.0020   30.2770   54.7880 C.ar    0  <0>0        0.1023
      2  C12        0.1610   31.0160   55.0760 C.ar    0  <0>0        0.0439
      3  C13       -0.2090   31.9030   56.0690 C.ar    0  <0>0        0.1303
      4  N1        -1.5300   31.6680   56.3270 N.ar    0  <0>0       -0.2713
      5  H1        -2.0640   32.1450   56.9820 H       0  <0>0        0.1891
      6  N2        -1.9630   30.7270   55.5680 N.ar    0  <0>0       -0.1725
      7  C14        0.6510   32.9040   56.7220 C.2     0  <0>0        0.2816
      8  O1         0.3300   33.3740   57.7970 O.2     0  <0>0       -0.2668
      9  N3         1.7940   33.2980   56.1280 N.am    0  <0>0       -0.2011
     10  H8         2.0510   32.9230   55.2700 H       0  <0>0        0.1776
     11  N4         2.6130   34.2510   56.7490 N.2     0  <0>0       -0.1773
     12  C15        3.8160   33.9300   57.1200 C.2     0  <0>0        0.1193
     13  C16        4.6770   34.9310   57.7740 C.ar    0  <0>0        0.0418
     14  C21        5.5970   35.6660   57.0210 C.ar    0  <0>0        0.0600
     15  C20        6.3960   36.6070   57.6400 C.ar    0  <0>0        0.0115
     16 Cl          5.7310   35.4010   55.3100 Cl      0  <0>0       -0.0822
     17  C19        6.2950   36.8160   59.0040 C.ar    0  <0>0        0.0017
     18  C18        5.3900   36.0890   59.7570 C.ar    0  <0>0        0.0115
     19  C17        4.5810   35.1490   59.1520 C.ar    0  <0>0        0.0600
     20 Cl          3.4460   34.2380   60.1000 Cl      0  <0>0       -0.0822
     21  C8        -1.1230   29.1920   53.7840 C.ar    0  <0>0        0.0194
     22  C7        -1.8180   29.3950   52.6020 C.ar    0  <0>0        0.0016
     23  C6        -1.9460   28.3940   51.6400 C.ar    0  <0>0        0.0000
     24  C5        -1.3850   27.1670   51.8370 C.ar    0  <0>0        0.0000
     25  C4        -0.6840   26.9460   53.0190 C.ar    0  <0>0        0.0000
     26  C22       -1.3300   25.8920   51.0320 C.2     0  <0>0        0.0000
     27  C3        -0.1440   25.6690   53.1390 C.ar    0  <0>0        0.0000
     28  C9        -0.5320   27.9280   54.0110 C.ar    0  <0>0        0.0015
     29  C2         0.5560   25.3740   54.2690 C.ar    0  <0>0        0.0000
     30  C23       -0.5110   24.9030   51.8910 C.2     0  <0>0        0.0000
     31  C1         0.7190   26.3350   55.2680 C.ar    0  <0>0        0.0000
     32  C10        0.1950   27.5920   55.1630 C.ar    0  <0>0        0.0000
@<TRIPOS>BOND
     1    26    24    1
     2    26    30    2
     3    23    24   ar
     4    23    22   ar
     5    24    25   ar
     6    30    27    1
     7    22    21   ar
     8    25    27   ar
     9    25    28   ar
    10    27    29   ar
    11    21    28   ar
    12    21     1    1
    13    28    32   ar
    14    29    31   ar
    15     1     2   ar
    16     1     6   ar
    17     2     3   ar
    18    32    31   ar
    19    10     9    1
    20    16    14    1
    21     6     4   ar
    22     3     4   ar
    23     3     7    1
    24     9     7   am
    25     9    11    1
    26     4     5    1
    27     7     8    2
    28    11    12    2
    29    14    15   ar
    30    14    13   ar
    31    12    13    1
    32    15    17   ar
    33    13    19   ar
    34    17    18   ar
    35    19    18   ar
    36    19    20    1
