@<TRIPOS>MOLECULE
ZINC59247891_replica-1.pdb
 26 27 0 0 0
SMALL
GASTEIGER

@<TRIPOS>ATOM
      1  C3        13.9370   33.6050   63.6230 C.ar    0  <0>0        0.1717
      2  C4        12.9320   34.2810   62.9610 C.ar    0  <0>0        0.0416
      3  C5        11.8870   33.5670   62.3660 C.ar    0  <0>0        0.0220
      4  C6        11.8650   32.1700   62.4450 C.ar    0  <0>0        0.0008
      5  C7        12.8720   31.5030   63.1080 C.ar    0  <0>0        0.0190
      6  C8        13.9130   32.2130   63.6930 C.ar    0  <0>0        0.1639
      7  C12       10.8120   34.2820   61.6590 C.2     0  <0>0        0.0989
      8  N1        11.0410   34.8080   60.4880 N.2     0  <0>0       -0.2430
      9  C13       10.0420   35.4730   59.8310 C.ar    0  <0>0        0.0921
     10  C18        9.3830   36.5400   60.4520 C.ar    0  <0>0        0.0752
     11  C17        8.3770   37.2160   59.7870 C.ar    0  <0>0        0.0131
     12 Cl          9.8340   37.0190   62.0590 Cl      0  <0>0       -0.0807
     13  C16        8.0090   36.8390   58.5120 C.ar    0  <0>0        0.0075
     14  C15        8.6550   35.7710   57.8810 C.ar    0  <0>0        0.0813
     15  C14        9.6740   35.0870   58.5430 C.ar    0  <0>0        0.0265
     16  C19        8.2600   35.3700   56.5180 C.2     0  <0>0        0.3878
     17  O3         7.6860   34.3050   56.3360 O.co2   0  <0>0       -0.2406
     18  O4         8.5050   36.1020   55.5690 O.co2   0  <0>0       -0.2406
     19  O1        14.9550   34.2960   64.2030 O.3     0  <0>0       -0.4724
     20  C2        16.2270   34.2430   63.5520 C.3     0  <0>0        0.2057
     21  C1        17.3290   34.5760   64.5600 C.3     0  <0>0        0.0512
     22  C9        12.8480   29.9990   63.1940 C.3     0  <0>0        0.0555
     23  C10       11.9230   29.5730   64.3040 C.2     0  <0>0       -0.0213
     24  C11       12.4160   29.1580   65.4450 C.2     0  <0>0       -0.0046
     25  O2        14.9050   31.5490   64.3400 O.3     0  <0>0       -0.5031
     26  H8        14.6400   30.6860   64.6860 H       0  <0>0        0.2923
@<TRIPOS>BOND
     1    18    16   ar
     2    17    16   ar
     3    16    14    1
     4    14    13   ar
     5    14    15   ar
     6    13    11   ar
     7    15     9   ar
     8    11    10   ar
     9     9    10   ar
    10     9     8    1
    11    10    12    1
    12     8     7    2
    13     7     3    1
    14     3     4   ar
    15     3     2   ar
    16     4     5   ar
    17     2     1   ar
    18     5    22    1
    19     5     6   ar
    20    22    23    1
    21    20    19    1
    22    20    21    1
    23     1     6   ar
    24     1    19    1
    25     6    25    1
    26    23    24    2
    27    25    26    1
