@<TRIPOS>MOLECULE
ZINC41661057_replica-1.pdb
 30 34 0 0 0
SMALL
GASTEIGER

@<TRIPOS>ATOM
      1  C6         2.9560   32.8770   58.8700 C.2     0  <0>0        0.0470
      2  C7         1.9900   31.9190   58.9630 C.2     0  <0>0        0.1845
      3  C8         1.7250   31.1160   60.1040 C.2     0  <0>0        0.2327
      4  O1         2.3030   31.1410   61.1790 O.2     0  <0>0       -0.2832
      5  C9         0.6020   30.2470   59.7120 C.ar    0  <0>0        0.0765
      6  C10       -0.1180   29.2500   60.3700 C.ar    0  <0>0        0.0094
      7  C11       -1.1320   28.6060   59.7230 C.ar    0  <0>0        0.0370
      8  C12       -1.4550   28.9380   58.4060 C.ar    0  <0>0        0.1407
      9  C13       -0.7500   29.9280   57.7430 C.ar    0  <0>0        0.0626
     10  C14        0.2860   30.5920   58.3880 C.ar    0  <0>0        0.1487
     11  O2         1.1180   31.5770   57.9850 O.3     0  <0>0       -0.4503
     12  C15       -1.0940   30.3030   56.3240 C.3     0  <0>0        0.1082
     13  N1        -1.9030   29.2380   55.7150 N.3     0  <0>0       -0.2312
     14  C16       -3.0130   28.8700   56.6090 C.3     0  <0>0        0.2848
     15  O3        -2.4690   28.2760   57.7900 O.3     0  <0>0       -0.4583
     16  C17       -2.4030   29.6460   54.3960 C.3     0  <0>0        0.0804
     17  C18       -1.2540   29.6250   53.3840 C.3     0  <0>0        0.0438
     18  C19       -1.0440   28.2150   52.8930 C.ar    0  <0>0       -0.0207
     19  C24       -1.6290   27.8010   51.7120 C.ar    0  <0>0       -0.0034
     20  C23       -1.4310   26.5110   51.2570 C.ar    0  <0>0        0.0111
     21  C22       -0.6560   25.6310   51.9920 C.ar    0  <0>0        0.0577
     22  C21       -0.0750   26.0450   53.1780 C.ar    0  <0>0        0.0111
     23 Cl         -0.4130   24.0070   51.4260 Cl      0  <0>0       -0.0822
     24  C20       -0.2690   27.3360   53.6280 C.ar    0  <0>0       -0.0034
     25  C5         3.1100   33.6120   57.6720 C.ar    0  <0>0        0.0287
     26  C2         2.5920   34.8590   57.3350 C.ar    0  <0>0       -0.0152
     27  C1         1.7280   35.6530   58.2810 C.3     0  <0>0        0.0316
     28  C3         2.9250   35.3220   56.0860 C.ar    0  <0>0        0.0032
     29  C4         3.7070   34.5560   55.2840 C.ar    0  <0>0        0.0351
     30  S1         4.0180   33.1820   56.2000 S.2     0  <0>0       -0.0867
@<TRIPOS>BOND
     1    20    19   ar
     2    20    21   ar
     3    23    21    1
     4    19    18   ar
     5    21    22   ar
     6    18    17    1
     7    18    24   ar
     8    22    24   ar
     9    17    16    1
    10    16    13    1
    11    29    28   ar
    12    29    30   ar
    13    13    12    1
    14    13    14    1
    15    28    26   ar
    16    30    25   ar
    17    12     9    1
    18    14    15    1
    19    26    25   ar
    20    26    27    1
    21    25     1    1
    22     9    10   ar
    23     9     8   ar
    24    15     8    1
    25    11    10    1
    26    11     2    1
    27    10     5   ar
    28     8     7   ar
    29     1     2    2
    30     2     3    1
    31     5     3    1
    32     5     6   ar
    33     7     6   ar
    34     3     4    2
