@<TRIPOS>MOLECULE
ZINC56446037_replica-1.pdb
 26 27 0 0 0
SMALL
GASTEIGER

@<TRIPOS>ATOM
      1  C1         6.5860   35.1480   56.9770 C.3     0  <0>0        0.0213
      2  C2         5.7230   35.9450   57.9570 C.3     0  <0>0        0.0734
      3  C3         6.6140   36.8770   58.7820 C.3     0  <0>0        0.0243
      4  C4         8.0290   36.8750   58.2010 C.3     0  <0>0        0.0280
      5  C5         9.0070   36.4380   59.2620 C.ar    0  <0>0       -0.0219
      6  C10        9.2140   37.2290   60.3770 C.ar    0  <0>0       -0.0012
      7  C9        10.1050   36.8280   61.3530 C.ar    0  <0>0        0.0366
      8  C8        10.8000   35.6360   61.2100 C.ar    0  <0>0        0.1384
      9  C7        10.5940   34.8470   60.0870 C.ar    0  <0>0        0.0366
     10  C6         9.6980   35.2500   59.1160 C.ar    0  <0>0       -0.0012
     11  O1        11.6800   35.2420   62.1680 O.3     0  <0>0       -0.4792
     12  C11       12.3230   33.9800   61.9770 C.3     0  <0>0        0.1661
     13  C12       13.8340   34.1450   62.1580 C.3     0  <0>0        0.0472
     14  C13       11.7930   32.9780   63.0040 C.3     0  <0>0        0.0472
     15  N1         5.0210   35.0230   58.8520 N.am    0  <0>0       -0.2904
     16  C14        3.7530   34.6530   58.5800 C.2     0  <0>0        0.3043
     17  O2         3.1930   35.0850   57.5920 O.2     0  <0>0       -0.2526
     18  N2         3.1080   33.8040   59.4040 N.am    0  <0>0       -0.2552
     19  C15        3.7830   33.2820   60.5950 C.3     0  <0>0        0.1169
     20  H20        5.4680   34.6780   59.6410 H       0  <0>0        0.1509
     21  C16        1.7300   33.4010   59.1080 C.3     0  <0>0        0.1595
     22  C17        0.8830   33.5630   60.3450 C.ar    0  <0>0        0.1431
     23  O3         0.2790   34.6960   60.7400 O.2     0  <0>0       -0.4530
     24  C20       -0.3910   34.4710   61.8820 C.ar    0  <0>0        0.1792
     25  C19       -0.2110   33.1850   62.2340 C.ar    0  <0>0        0.0435
     26  C18        0.6100   32.6010   61.2430 C.ar    0  <0>0        0.0379
@<TRIPOS>BOND
     1     1     2    1
     2    17    16    2
     3     2     3    1
     4     2    15    1
     5     4     3    1
     6     4     5    1
     7    16    15   am
     8    16    18   am
     9    15    20    1
    10    21    18    1
    11    21    22    1
    12    10     5   ar
    13    10     9   ar
    14     5     6   ar
    15    18    19    1
    16     9     8   ar
    17    22    23   ar
    18    22    26   ar
    19     6     7   ar
    20    23    24   ar
    21     8     7   ar
    22     8    11    1
    23    26    25   ar
    24    24    25   ar
    25    12    13    1
    26    12    11    1
    27    12    14    1
