@<TRIPOS>MOLECULE
ZINC08626799_replica-1.pdb
 28 31 0 0 0
SMALL
GASTEIGER

@<TRIPOS>ATOM
      1  C1         1.7900   35.6140   59.2940 C.ar    0  <0>0        0.0209
      2  C2         2.9110   35.9660   58.5620 C.ar    0  <0>0        0.0094
      3  C3         3.6630   34.9460   57.9670 C.ar    0  <0>0        0.0903
      4  C4         3.2550   33.6110   58.1460 C.ar    0  <0>0        0.1163
      5  N1         2.1760   33.3320   58.8610 N.ar    0  <0>0       -0.2371
      6  C5         1.4520   34.2800   59.4250 C.ar    0  <0>0        0.0994
      7  C12        4.8630   35.2630   57.1730 C.2     0  <0>0        0.2863
      8  O2         4.9080   35.2450   55.8280 O.3     0  <0>0       -0.3910
      9  C21        6.1530   35.5880   55.4310 C.2     0  <0>0        0.3738
     10  C13        6.9060   35.8210   56.6780 C.2     0  <0>0        0.1923
     11  O1         6.5640   35.6840   54.2910 O.2     0  <0>0       -0.2419
     12  N2         6.0170   35.5960   57.6870 N.2     0  <0>0       -0.3648
     13  C14        8.2280   36.1910   56.7980 C.3     0  <0>0        0.0922
     14  C15        8.8570   36.2440   58.1200 C.ar    0  <0>0       -0.0148
     15  C20        9.6060   35.1570   58.5890 C.ar    0  <0>0       -0.0030
     16  C19       10.1950   35.2150   59.8330 C.ar    0  <0>0        0.0111
     17  C18       10.0460   36.3450   60.6210 C.ar    0  <0>0        0.0577
     18  C17        9.3080   37.4250   60.1660 C.ar    0  <0>0        0.0111
     19 Cl         10.7910   36.4080   62.1890 Cl      0  <0>0       -0.0822
     20  C16        8.7180   37.3860   58.9210 C.ar    0  <0>0       -0.0030
     21  S1         4.1850   32.3050   57.4150 S.3     0  <0>0       -0.0678
     22  C6         5.5630   32.2600   58.5140 C.ar    0  <0>0        0.0309
     23  C11        5.3650   32.3970   59.8830 C.ar    0  <0>0        0.0074
     24  C10        6.4470   32.3600   60.7410 C.ar    0  <0>0        0.0119
     25  C9         7.7250   32.1890   60.2390 C.ar    0  <0>0        0.0577
     26  C8         7.9240   32.0520   58.8770 C.ar    0  <0>0        0.0119
     27 Cl          9.0820   32.1440   61.3220 Cl      0  <0>0       -0.0822
     28  C7         6.8470   32.0830   58.0140 C.ar    0  <0>0        0.0074
@<TRIPOS>BOND
     1    11     9    2
     2     9     8    1
     3     9    10    1
     4     8     7    1
     5    10    13    1
     6    10    12    2
     7    13    14    1
     8     7    12    2
     9     7     3    1
    10    21     4    1
    11    21    22    1
    12     3     4   ar
    13     3     2   ar
    14    28    22   ar
    15    28    26   ar
    16    14    15   ar
    17    14    20   ar
    18     4     5   ar
    19    22    23   ar
    20     2     1   ar
    21    15    16   ar
    22     5     6   ar
    23    26    25   ar
    24    20    18   ar
    25     1     6   ar
    26    16    17   ar
    27    23    24   ar
    28    18    17   ar
    29    25    24   ar
    30    25    27    1
    31    17    19    1
