@<TRIPOS>MOLECULE
ZINC12872068_replica-1.pdb
 25 28 0 0 0
SMALL
GASTEIGER

@<TRIPOS>ATOM
      1  C11        6.7590   35.7970   55.1590 C.2     0  <0>0        0.0039
      2  C12        5.4220   35.4450   55.2380 C.2     0  <0>0        0.0547
      3  C13        4.5470   35.4950   56.4300 C.ar    0  <0>0        0.0179
      4  C14        4.7540   35.8900   57.7480 C.ar    0  <0>0        0.0022
      5  C15        3.7130   35.8290   58.6520 C.ar    0  <0>0        0.0115
      6  C16        2.4650   35.3800   58.2460 C.ar    0  <0>0        0.0589
      7  C17        2.2490   34.9910   56.9380 C.ar    0  <0>0        0.0261
      8  C18        3.2860   35.0480   56.0130 C.ar    0  <0>0        0.0515
      9  N1         3.3400   34.7240   54.6640 N.am    0  <0>0       -0.2804
     10  C19        4.5670   34.9360   54.1580 C.2     0  <0>0        0.2495
     11  O3         4.9100   34.7420   53.0050 O.2     0  <0>0       -0.2698
     12 Cl          1.1630   35.3060   59.3910 Cl      0  <0>0       -0.0822
     13  H14        2.5880   34.3860   54.1510 H       0  <0>0        0.1552
     14  C9         7.4650   36.1330   56.3220 C.2     0  <0>0        0.0214
     15  C8         7.5760   37.5730   56.7520 C.3     0  <0>0        0.2320
     16  O2         7.6440   37.6650   58.1750 O.3     0  <0>0       -0.4705
     17  C6         8.5210   36.8510   58.8110 C.ar    0  <0>0        0.1420
     18  C5         8.7650   35.5650   58.2900 C.ar    0  <0>0        0.0340
     19  C7         9.1730   37.2560   59.9590 C.ar    0  <0>0        0.0738
     20  C4         9.6640   34.7090   58.9310 C.ar    0  <0>0        0.0061
     21  C10        8.0560   35.1570   57.0720 C.2     0  <0>0        0.0023
     22  C3        10.3050   35.1260   60.0630 C.ar    0  <0>0        0.0371
     23  C2        10.0680   36.3950   60.5820 C.ar    0  <0>0        0.1418
     24  O1        10.7130   36.7950   61.7080 O.3     0  <0>0       -0.4713
     25  C1        11.5870   35.8480   62.3250 C.3     0  <0>0        0.2525
@<TRIPOS>BOND
     1    11    10    2
     2    13     9    1
     3    10     9   am
     4    10     2    1
     5     9     8    1
     6     1     2    2
     7     1    14    1
     8     2     3    1
     9     8     3   ar
    10     8     7   ar
    11    14    15    1
    12    14    21    2
    13     3     4   ar
    14    15    16    1
    15     7     6   ar
    16    21    18    1
    17     4     5   ar
    18    16    17    1
    19     6     5   ar
    20     6    12    1
    21    18    17   ar
    22    18    20   ar
    23    17    19   ar
    24    20    22   ar
    25    19    23   ar
    26    22    23   ar
    27    23    24    1
    28    24    25    1
