@<TRIPOS>MOLECULE
ZINC49902949_replica-1.pdb
 24 25 0 0 0
SMALL
GASTEIGER

@<TRIPOS>ATOM
      1  N1        -1.3530   30.8870   55.6200 N.pl3   0  <0>0       -0.3309
      2  H10       -2.1320   31.4510   55.5000 H       0  <0>0        0.1469
      3  C8        -0.9080   30.5730   56.9060 C.ar    0  <0>0        0.0366
      4  C3        -0.0100   31.4110   57.5550 C.ar    0  <0>0       -0.0094
      5  C4         0.4240   31.1020   58.8290 C.ar    0  <0>0       -0.0031
      6  C5        -0.0300   29.9560   59.4560 C.ar    0  <0>0       -0.0006
      7  C6        -0.9210   29.1170   58.8120 C.ar    0  <0>0       -0.0031
      8  C7        -1.3580   29.4210   57.5370 C.ar    0  <0>0       -0.0094
      9  C2         0.4860   32.6590   56.8720 C.3     0  <0>0        0.0276
     10  C1         1.9230   32.4430   56.3920 C.3     0  <0>0        0.0051
     11  C19       -2.3280   28.5060   56.8350 C.3     0  <0>0        0.0276
     12  C20       -2.8370   27.4510   57.8190 C.3     0  <0>0        0.0051
     13  C9        -0.6430   30.3620   54.4510 C.3     0  <0>0        0.1213
     14  C10       -1.6540   29.9760   53.3700 C.3     0  <0>0        0.1518
     15  C11       -1.3420   28.5930   52.8600 C.ar    0  <0>0        0.0019
     16  C16       -1.9100   28.1460   51.6830 C.ar    0  <0>0       -0.0238
     17  C15       -1.6210   26.8780   51.2130 C.ar    0  <0>0       -0.0087
     18  C17       -2.8410   29.0410   50.9070 C.3     0  <0>0        0.0308
     19  C14       -0.7700   26.0540   51.9260 C.ar    0  <0>0       -0.0222
     20  C13       -0.2050   26.5000   53.1070 C.ar    0  <0>0       -0.0045
     21  C18       -0.4570   24.6700   51.4170 C.3     0  <0>0        0.0310
     22  C12       -0.4910   27.7690   53.5740 C.ar    0  <0>0       -0.0025
     23  O1        -2.9720   29.9950   53.9220 O.3     0  <0>0       -0.3783
     24  H22       -3.2380   30.8550   54.2740 H       0  <0>0        0.2109
@<TRIPOS>BOND
     1    18    16    1
     2    17    16   ar
     3    17    19   ar
     4    21    19    1
     5    16    15   ar
     6    19    20   ar
     7    15    14    1
     8    15    22   ar
     9    20    22   ar
    10    14    23    1
    11    14    13    1
    12    23    24    1
    13    13     1    1
    14     2     1    1
    15     1     3    1
    16    10     9    1
    17    11     8    1
    18    11    12    1
    19     9     4    1
    20     3     8   ar
    21     3     4   ar
    22     8     7   ar
    23     4     5   ar
    24     7     6   ar
    25     5     6   ar
