@<TRIPOS>MOLECULE
ZINC64468063_replica-1.pdb
 28 29 0 0 0
SMALL
GASTEIGER

@<TRIPOS>ATOM
      1  N1         0.7510   30.4530   54.9400 N.am    0  <0>0       -0.3027
      2  C5         0.2650   31.3340   55.8370 C.2     0  <0>0        0.2408
      3  O1        -0.9290   31.4020   56.0350 O.2     0  <0>0       -0.2733
      4  H9         1.7070   30.3990   54.7820 H       0  <0>0        0.1495
      5  C6         1.2070   32.2340   56.5950 C.3     0  <0>0        0.1554
      6  C7         0.3990   33.2290   57.4320 C.3     0  <0>0        0.0554
      7  C8         0.6570   32.9800   58.8960 C.ar    0  <0>0       -0.0200
      8  C13        0.3640   33.9600   59.8250 C.ar    0  <0>0       -0.0042
      9  C12        0.5970   33.7310   61.1680 C.ar    0  <0>0       -0.0003
     10  C11        1.1300   32.5250   61.5810 C.ar    0  <0>0       -0.0000
     11  C10        1.4270   31.5460   60.6510 C.ar    0  <0>0       -0.0003
     12  C9         1.1900   31.7730   59.3080 C.ar    0  <0>0       -0.0042
     13  N2         2.0520   32.9660   55.6480 N.am    0  <0>0       -0.2637
     14  C14        3.3450   33.2070   55.9450 C.2     0  <0>0        0.4021
     15  O2         3.8100   32.8150   56.9970 O.2     0  <0>0       -0.2264
     16  H18        1.6810   33.2790   54.8090 H       0  <0>0        0.1532
     17  O3         4.1210   33.8800   55.0750 O.3     0  <0>0       -0.4306
     18  C15        3.9180   35.2900   54.9800 C.3     0  <0>0        0.2573
     19  C4        -0.1640   29.5790   54.2030 C.3     0  <0>0        0.0937
     20  C3         0.2070   28.1170   54.4610 C.3     0  <0>0        0.0419
     21  C2        -0.4250   27.6550   55.7760 C.3     0  <0>0        0.0061
     22  C1         0.6740   27.4130   56.8140 C.3     0  <0>0        0.0004
     23  C16       -0.3030   27.2620   53.3310 C.ar    0  <0>0       -0.0208
     24  C21       -1.0860   27.8230   52.3400 C.ar    0  <0>0       -0.0042
     25  C20       -1.5520   27.0400   51.3000 C.ar    0  <0>0       -0.0003
     26  C19       -1.2410   25.6930   51.2560 C.ar    0  <0>0       -0.0000
     27  C18       -0.4610   25.1310   52.2510 C.ar    0  <0>0       -0.0003
     28  C17        0.0070   25.9160   53.2880 C.ar    0  <0>0       -0.0042
@<TRIPOS>BOND
     1    26    25   ar
     2    26    27   ar
     3    25    24   ar
     4    27    28   ar
     5    24    23   ar
     6    28    23   ar
     7    23    20    1
     8    19    20    1
     9    19     1    1
    10    20    21    1
    11     4     1    1
    12    16    13    1
    13     1     2   am
    14    18    17    1
    15    17    14    1
    16    13    14   am
    17    13     5    1
    18    21    22    1
    19     2     3    2
    20     2     5    1
    21    14    15    2
    22     5     6    1
    23     6     7    1
    24     7    12   ar
    25     7     8   ar
    26    12    11   ar
    27     8     9   ar
    28    11    10   ar
    29     9    10   ar
