@<TRIPOS>MOLECULE
ZINC08873304_replica-1.pdb
 29 32 0 0 0
SMALL
GASTEIGER

@<TRIPOS>ATOM
      1  N1         6.2660   35.4080   58.4410 N.am    0  <0>0       -0.2227
      2  C9         5.2500   35.0210   59.1940 C.2     0  <0>0        0.2633
      3  O1         5.2710   35.1440   60.4050 O.2     0  <0>0       -0.2687
      4  C10        4.0940   34.4350   58.4960 C.2     0  <0>0        0.0854
      5  C11        2.9280   33.9560   59.0030 C.2     0  <0>0        0.0147
      6  S1         4.6490   34.5170   56.7980 S.3     0  <0>0       -0.0601
      7  C22        6.2400   35.2720   57.0990 C.2     0  <0>0        0.1250
      8  S2         7.4430   35.7070   55.9620 S.2     0  <0>0       -0.0269
      9  C12        1.9050   33.4110   58.1020 C.ar    0  <0>0        0.0444
     10  C14        1.6520   32.0720   57.8580 C.ar    0  <0>0        0.1409
     11  N3         0.6410   32.0110   56.9670 N.ar    0  <0>0       -0.2193
     12 Cl          2.4880   30.7220   58.5600 Cl      0  <0>0       -0.0612
     13  N2         0.2460   33.3160   56.6550 N.ar    0  <0>0       -0.1687
     14  C13        0.9900   34.1560   57.3190 C.ar    0  <0>0        0.0816
     15  C21        0.8920   35.6590   57.2640 C.3     0  <0>0        0.0540
     16  C15        0.0790   30.8370   56.4450 C.ar    0  <0>0        0.0837
     17  C20       -0.7440   30.0480   57.2400 C.ar    0  <0>0        0.0192
     18  C19       -1.2970   28.8930   56.7230 C.ar    0  <0>0        0.0015
     19  C18       -1.0320   28.5210   55.4180 C.ar    0  <0>0        0.0001
     20  C17       -0.2130   29.3040   54.6250 C.ar    0  <0>0        0.0015
     21  C16        0.3390   30.4640   55.1340 C.ar    0  <0>0        0.0192
     22  C6         7.3940   35.9730   59.0500 C.ar    0  <0>0        0.0550
     23  C5         7.4560   37.3430   59.2650 C.ar    0  <0>0        0.0149
     24  C4         8.5690   37.8970   59.8650 C.ar    0  <0>0        0.0009
     25  C3         9.6230   37.0900   60.2510 C.ar    0  <0>0       -0.0045
     26  C2         9.5660   35.7240   60.0360 C.ar    0  <0>0       -0.0246
     27  C1        10.7170   34.8470   60.4580 C.3     0  <0>0        0.0307
     28  C7         8.4520   35.1630   59.4430 C.ar    0  <0>0       -0.0117
     29  C8         8.3880   33.6760   59.2160 C.3     0  <0>0        0.0320
@<TRIPOS>BOND
     1    20    21   ar
     2    20    19   ar
     3    21    16   ar
     4    19    18   ar
     5     8     7    2
     6    16    11    1
     7    16    17   ar
     8    13    11   ar
     9    13    14   ar
    10    18    17   ar
    11     6     7    1
    12     6     4    1
    13    11    10   ar
    14     7     1    1
    15    15    14    1
    16    14     9   ar
    17    10     9   ar
    18    10    12    1
    19     9     5    1
    20     1    22    1
    21     1     2   am
    22     4     5    2
    23     4     2    1
    24    22    23   ar
    25    22    28   ar
    26     2     3    2
    27    29    28    1
    28    23    24   ar
    29    28    26   ar
    30    24    25   ar
    31    26    25   ar
    32    26    27    1
