@<TRIPOS>MOLECULE
ZINC60353675_replica-1.pdb
 27 30 0 0 0
SMALL
GASTEIGER

@<TRIPOS>ATOM
      1  C9         7.8520   36.2610   58.1380 C.3     0  <0>0        0.0607
      2  C10        6.9710   37.1440   59.0240 C.3     0  <0>0        0.0183
      3  C11        7.6410   38.5060   59.2120 C.3     0  <0>0        0.0016
      4  C12        7.8280   39.1770   57.8490 C.3     0  <0>0        0.0001
      5  C13        8.7090   38.2930   56.9640 C.3     0  <0>0        0.0016
      6  C14        8.0390   36.9300   56.7750 C.3     0  <0>0        0.0183
      7  N3         9.1590   36.0790   58.7740 N.am    0  <0>0       -0.3071
      8  C8         9.2630   35.3520   59.9040 C.2     0  <0>0        0.2222
      9  O1         8.2660   34.9210   60.4420 O.2     0  <0>0       -0.2751
     10  H10        9.9490   36.4840   58.3830 H       0  <0>0        0.1493
     11  C7        10.6200   35.0720   60.4970 C.3     0  <0>0        0.0809
     12  C5        10.6740   34.6350   61.9620 C.3     0  <0>0        0.0345
     13  C6        11.1370   36.0380   61.5650 C.3     0  <0>0        0.0143
     14  C3        11.7330   33.6370   62.3520 C.ar    0  <0>0        0.0176
     15  C2        11.5180   32.3620   62.7480 C.ar    0  <0>0        0.0924
     16  N1        12.7200   31.8020   63.0060 N.ar    0  <0>0       -0.2477
     17  C1        12.9510   30.4300   63.4620 C.3     0  <0>0        0.1537
     18  N2        13.7050   32.7680   62.7660 N.ar    0  <0>0       -0.1679
     19  C4        13.1130   33.8660   62.3680 C.ar    0  <0>0        0.1174
     20  C15        7.1810   34.8990   57.9490 C.3     0  <0>0        0.0443
     21  C16        5.7000   35.0910   57.7480 C.ar    0  <0>0       -0.0206
     22  C21        5.2150   35.4770   56.5130 C.ar    0  <0>0       -0.0037
     23  C20        3.8560   35.6500   56.3270 C.ar    0  <0>0        0.0064
     24  C19        2.9830   35.4460   57.3810 C.ar    0  <0>0        0.0345
     25  C18        3.4700   35.0640   58.6170 C.ar    0  <0>0        0.0064
     26 Br          1.1250   35.6880   57.1280 Br      0  <0>0       -0.0490
     27  C17        4.8280   34.8880   58.8010 C.ar    0  <0>0       -0.0037
@<TRIPOS>BOND
     1    23    22   ar
     2    23    24   ar
     3    22    21   ar
     4     6     5    1
     5     6     1    1
     6     5     4    1
     7    26    24    1
     8    24    25   ar
     9    21    20    1
    10    21    27   ar
    11     4     3    1
    12    20     1    1
    13     1     7    1
    14     1     2    1
    15    10     7    1
    16    25    27   ar
    17     7     8   am
    18     2     3    1
    19     8     9    2
    20     8    11    1
    21    11    13    1
    22    11    12    1
    23    13    12    1
    24    12    14    1
    25    14    19   ar
    26    14    15   ar
    27    19    18   ar
    28    15    16   ar
    29    18    16   ar
    30    16    17    1
