@<TRIPOS>MOLECULE
ZINC48417795_replica-1.pdb
 27 30 0 0 0
SMALL
GASTEIGER

@<TRIPOS>ATOM
      1  C1         7.7330   31.2750   61.2450 C.3     0  <0>0       -0.0997
      2  N1         7.3610   32.2760   60.2360 N.4     0  <0>0        0.3910
      3  C2         8.3430   33.3620   60.2430 C.3     0  <0>0       -0.0470
      4  C3         8.0380   34.3810   59.1810 C.2     0  <0>0       -0.0109
      5  C4         8.5180   35.6760   59.3160 C.2     0  <0>0        0.0644
      6  C5         8.1970   36.6290   58.2520 C.3     0  <0>0        0.1026
      7  C6         8.6380   37.9550   58.3010 C.2     0  <0>0       -0.0148
      8  C7         8.3150   38.8110   57.2880 C.2     0  <0>0       -0.0038
      9  C8         7.5540   38.3800   56.2040 C.2     0  <0>0        0.0020
     10  C9         7.1090   37.0960   56.1250 C.2     0  <0>0        0.0282
     11  C10        7.4210   36.1840   57.1510 C.2     0  <0>0        0.1169
     12  N2         6.9990   34.9210   57.1000 N.2     0  <0>0       -0.4064
     13  C11        7.2740   34.0440   58.0470 C.2     0  <0>0        0.1189
     14  C12        6.7670   32.6580   57.9300 C.2     0  <0>0       -0.0139
     15  C13        5.8580   32.3160   57.0000 C.2     0  <0>0       -0.0030
     16  C20        7.3190   31.6410   58.9090 C.3     0  <0>0       -0.0469
     17  H17        6.4490   32.6500   60.4570 H       0  <0>0       -0.0788
     18  C14        5.1840   33.3620   56.2100 C.ar    0  <0>0        0.0103
     19  C19        4.1180   34.0800   56.7610 C.ar    0  <0>0        0.0576
     20  C18        3.4940   35.0620   56.0160 C.ar    0  <0>0        0.0114
     21 Cl          3.5820   33.7430   58.3780 Cl      0  <0>0       -0.0822
     22  C17        3.9150   35.3270   54.7260 C.ar    0  <0>0        0.0009
     23  C16        4.9670   34.6170   54.1730 C.ar    0  <0>0        0.0001
     24  C15        5.6030   33.6370   54.9050 C.ar    0  <0>0        0.0008
     25  C21        9.3220   36.0790   60.4870 C.2     0  <0>0        0.3843
     26  O1        10.5370   35.9420   60.4710 O.co2   0  <0>0       -0.2409
     27  O2         8.7720   36.5480   61.4740 O.co2   0  <0>0       -0.2409
@<TRIPOS>BOND
     1    23    22   ar
     2    23    24   ar
     3    22    20   ar
     4    24    18   ar
     5    20    19   ar
     6    10     9    2
     7    10    11    1
     8     9     8    1
     9    18    19   ar
    10    18    15    1
    11    19    21    1
    12    15    14    2
    13    12    11    2
    14    12    13    2
    15    11     6    1
    16     8     7    2
    17    14    13    1
    18    14    16    1
    19    13     4    1
    20     6     7    1
    21     6     5    1
    22    16     2    1
    23     4     5    2
    24     4     3    1
    25     5    25    1
    26     2     3    1
    27     2    17    1
    28     2     1    1
    29    26    25   ar
    30    25    27   ar
