@<TRIPOS>MOLECULE
ZINC11724985_replica-1.pdb
 23 25 0 0 0
SMALL
GASTEIGER

@<TRIPOS>ATOM
      1  C1        -0.6370   24.5590   51.2370 C.3     0  <0>0        0.0324
      2  C2        -0.8190   25.9400   51.8140 C.2     0  <0>0       -0.0064
      3  C3        -1.6060   26.8830   51.1370 C.2     0  <0>0        0.0010
      4  C4        -1.7660   28.1280   51.6650 C.2     0  <0>0        0.0481
      5  C5        -1.1380   28.4490   52.8830 C.2     0  <0>0        0.1921
      6  N1        -1.2930   29.6670   53.4010 N.2     0  <0>0       -0.3927
      7  C6        -0.7190   30.0070   54.5440 C.2     0  <0>0        0.1172
      8  C7         0.0590   29.0930   55.2260 C.3     0  <0>0        0.1420
      9  C8         0.2280   27.8120   54.6880 C.2     0  <0>0        0.2418
     10  O1         0.9100   26.9810   55.2670 O.2     0  <0>0       -0.2737
     11  N2        -0.3780   27.5080   53.5190 N.am    0  <0>0       -0.2111
     12  C9        -0.2270   26.2650   52.9850 C.2     0  <0>0        0.0701
     13  C10       -0.9160   31.3930   55.1010 C.3     0  <0>0        0.1431
     14  N3         0.3500   31.8830   55.6510 N.pl3   0  <0>0       -0.3255
     15  H10        1.1210   31.9930   55.0710 H       0  <0>0        0.1472
     16  C11        0.4500   32.1890   57.0130 C.ar    0  <0>0        0.0728
     17  C16        0.5120   33.5150   57.4260 C.ar    0  <0>0        0.1536
     18  C15        0.6040   33.8140   58.7730 C.ar    0  <0>0        0.0376
     19  F1         0.4760   34.5110   56.5130 F       0  <0>0       -0.2029
     20  C14        0.6460   32.7940   59.7070 C.ar    0  <0>0        0.0369
     21  C13        0.5910   31.4740   59.2970 C.ar    0  <0>0        0.0081
     22 Br          0.7800   33.2060   61.5480 Br      0  <0>0       -0.0489
     23  C12        0.4930   31.1680   57.9530 C.ar    0  <0>0        0.0171
@<TRIPOS>BOND
     1     3     4    2
     2     3     2    1
     3     1     2    1
     4     4     5    1
     5     2    12    2
     6     5     6    2
     7     5    11    1
     8    12    11    1
     9     6     7    2
    10    11     9   am
    11     7    13    1
    12     7     8    1
    13     9     8    1
    14     9    10    2
    15    15    14    1
    16    13    14    1
    17    14    16    1
    18    19    17    1
    19    16    17   ar
    20    16    23   ar
    21    17    18   ar
    22    23    21   ar
    23    18    20   ar
    24    21    20   ar
    25    20    22    1
