@<TRIPOS>MOLECULE
ZINC49920275_replica-1.pdb
 24 25 0 0 0
SMALL
GASTEIGER

@<TRIPOS>ATOM
      1  C10       10.0150   35.2120   61.1080 C.3     0  <0>0        0.1213
      2  C9         9.8410   36.7230   60.9420 C.3     0  <0>0        0.1521
      3  C6         9.2010   37.0120   59.6090 C.ar    0  <0>0        0.0059
      4  C5         9.0910   36.0090   58.6640 C.ar    0  <0>0       -0.0022
      5  C4         8.5020   36.2730   57.4410 C.ar    0  <0>0       -0.0045
      6  C3         8.0240   37.5400   57.1640 C.ar    0  <0>0       -0.0222
      7  C8         8.1370   38.5440   58.1080 C.ar    0  <0>0       -0.0045
      8  C7         8.7220   38.2790   59.3320 C.ar    0  <0>0       -0.0022
      9  C2         7.3820   37.8280   55.8310 C.3     0  <0>0        0.0264
     10  C1         7.5390   36.6120   54.9160 C.3     0  <0>0        0.0050
     11  O1         9.0080   37.2250   61.9900 O.3     0  <0>0       -0.3783
     12  H18        9.1110   38.1730   62.1540 H       0  <0>0        0.2109
     13  N1        11.3960   34.9190   61.4980 N.pl3   0  <0>0       -0.3304
     14  H13       12.1050   35.5460   61.2830 H       0  <0>0        0.1469
     15  C11       11.6930   33.7370   62.1810 C.ar    0  <0>0        0.0447
     16  C16       12.9700   33.5270   62.6870 C.ar    0  <0>0        0.0142
     17  C15       13.2580   32.3590   63.3650 C.ar    0  <0>0        0.0051
     18  C14       12.2820   31.3940   63.5320 C.ar    0  <0>0        0.0715
     19  C13       11.0120   31.5980   63.0240 C.ar    0  <0>0        0.0051
     20  C12       10.7140   32.7650   62.3500 C.ar    0  <0>0        0.0142
     21  C17       12.6020   30.1200   64.2680 C.3     0  <0>0        0.4186
     22  F1        13.3600   30.4170   65.4060 F       0  <0>0       -0.1659
     23  F2        11.4120   29.4920   64.6530 F       0  <0>0       -0.1659
     24  F3        13.3290   29.2680   63.4310 F       0  <0>0       -0.1659
@<TRIPOS>BOND
     1    10     9    1
     2     9     6    1
     3     6     5   ar
     4     6     7   ar
     5     5     4   ar
     6     7     8   ar
     7     4     3   ar
     8     8     3   ar
     9     3     2    1
    10     2     1    1
    11     2    11    1
    12     1    13    1
    13    14    13    1
    14    13    15    1
    15    11    12    1
    16    15    20   ar
    17    15    16   ar
    18    20    19   ar
    19    16    17   ar
    20    19    18   ar
    21    17    18   ar
    22    24    21    1
    23    18    21    1
    24    21    23    1
    25    21    22    1
