@<TRIPOS>MOLECULE
ZINC00706993_replica-1.pdb
 27 30 0 0 0
SMALL
GASTEIGER

@<TRIPOS>ATOM
      1  N3        -1.3350   29.1120   54.8640 N.pl3   0  <0>0       -0.2835
      2  C8        -1.2880   28.4730   53.6210 C.ar    0  <0>0        0.0577
      3  C9        -2.0400   28.9530   52.5590 C.ar    0  <0>0        0.0153
      4  C10       -1.9900   28.3140   51.3320 C.ar    0  <0>0        0.0013
      5  C11       -1.1960   27.1970   51.1550 C.ar    0  <0>0        0.0006
      6  C12       -0.4400   26.7090   52.2100 C.ar    0  <0>0        0.0077
      7  C13       -0.4870   27.3430   53.4360 C.ar    0  <0>0        0.0431
      8  S1         0.4640   26.7450   54.7990 S.3     0  <0>0       -0.0844
      9  C14       -0.5020   27.2560   56.1860 C.ar    0  <0>0        0.0431
     10  C15       -1.2970   28.3960   56.0660 C.ar    0  <0>0        0.0577
     11  C16       -2.0550   28.8070   57.1490 C.ar    0  <0>0        0.0153
     12  C17       -2.0140   28.0920   58.3340 C.ar    0  <0>0        0.0013
     13  C18       -1.2210   26.9660   58.4440 C.ar    0  <0>0        0.0006
     14  C19       -0.4700   26.5450   57.3710 C.ar    0  <0>0        0.0077
     15  C7        -1.4190   30.5740   54.9100 C.3     0  <0>0        0.1267
     16  C6        -0.0240   31.1580   55.1360 C.3     0  <0>0        0.1548
     17  C5         0.0910   31.6620   56.5770 C.3     0  <0>0        0.1579
     18  N1         1.1760   32.6440   56.6640 N.ar    0  <0>0       -0.2522
     19  C4         1.2740   33.6390   57.5710 C.ar    0  <0>0        0.0634
     20  C3         2.4170   34.3190   57.3140 C.ar    0  <0>0        0.0629
     21  C20        0.2890   33.9410   58.6710 C.3     0  <0>0        0.0523
     22  C2         3.0380   33.7170   56.2140 C.ar    0  <0>0        0.0862
     23 Br          3.0610   35.8160   58.2730 Br      0  <0>0       -0.0465
     24  C1         4.3370   34.1510   55.5860 C.3     0  <0>0        0.0545
     25  N2         2.2920   32.7160   55.8210 N.ar    0  <0>0       -0.1734
     26  O1         0.9590   30.1470   54.9060 O.3     0  <0>0       -0.3806
     27  H17        0.8810   29.7100   54.0470 H       0  <0>0        0.2105
@<TRIPOS>BOND
     1     5     4   ar
     2     5     6   ar
     3     4     3   ar
     4     6     7   ar
     5     3     2   ar
     6     7     2   ar
     7     7     8    1
     8     2     1    1
     9    27    26    1
    10     8     9    1
    11     1    15    1
    12     1    10    1
    13    26    16    1
    14    15    16    1
    15    16    17    1
    16    24    22    1
    17    25    22   ar
    18    25    18   ar
    19    10     9   ar
    20    10    11   ar
    21     9    14   ar
    22    22    20   ar
    23    17    18    1
    24    18    19   ar
    25    11    12   ar
    26    20    19   ar
    27    20    23    1
    28    14    13   ar
    29    19    21    1
    30    12    13   ar
