@<TRIPOS>MOLECULE
ZINC11954282_replica-1.pdb
 24 25 0 0 0
SMALL
GASTEIGER

@<TRIPOS>ATOM
      1  C10        0.6580   31.5630   56.2730 C.3     0  <0>0        0.2525
      2  C9         0.0480   31.1930   54.9190 C.3     0  <0>0        0.2525
      3  O1        -0.9430   30.1800   55.1040 O.3     0  <0>0       -0.4714
      4  C4        -0.8300   29.0610   54.3410 C.ar    0  <0>0        0.1382
      5  C3        -0.1430   27.9580   54.8230 C.ar    0  <0>0        0.0335
      6  C2        -0.0300   26.8210   54.0460 C.ar    0  <0>0       -0.0086
      7  C1         0.7180   25.6220   54.5710 C.3     0  <0>0        0.0320
      8  C7        -0.6030   26.7820   52.7880 C.ar    0  <0>0        0.0499
      9  C6        -1.2900   27.8820   52.3040 C.ar    0  <0>0       -0.0086
     10 Cl         -0.4590   25.3530   51.8140 Cl      0  <0>0       -0.0829
     11  C5        -1.4090   29.0190   53.0810 C.ar    0  <0>0        0.0335
     12  C8        -1.9140   27.8370   50.9330 C.3     0  <0>0        0.0320
     13  O2         0.3700   32.9310   56.5680 O.3     0  <0>0       -0.4714
     14  C11        0.5520   33.3360   57.8500 C.ar    0  <0>0        0.1403
     15  C16        0.9140   34.6630   58.1240 C.ar    0  <0>0        0.0535
     16  C15        1.0970   35.0680   59.4490 C.ar    0  <0>0        0.0048
     17  C14        0.9230   34.1650   60.4750 C.ar    0  <0>0        0.0003
     18  C13        0.5660   32.8550   60.1990 C.ar    0  <0>0        0.0031
     19  C12        0.3750   32.4420   58.8950 C.ar    0  <0>0        0.0370
     20  C17        1.0980   35.6230   57.0220 C.2     0  <0>0        0.0810
     21  S1         2.6760   36.0580   56.5200 S.2     0  <0>0       -0.0351
     22  N1         0.0250   36.1590   56.4090 N.am    0  <0>0       -0.3516
     23  H17       -0.8700   35.9130   56.6930 H       0  <0>0        0.1428
     24  H18        0.1460   36.7920   55.6840 H       0  <0>0        0.1428
@<TRIPOS>BOND
     1    12     9    1
     2    10     8    1
     3     9     8   ar
     4     9    11   ar
     5     8     6   ar
     6    11     4   ar
     7     6     7    1
     8     6     5   ar
     9     4     5   ar
    10     4     3    1
    11     2     3    1
    12     2     1    1
    13    24    22    1
    14     1    13    1
    15    22    23    1
    16    22    20    1
    17    21    20    2
    18    13    14    1
    19    20    15    1
    20    14    15   ar
    21    14    19   ar
    22    15    16   ar
    23    19    18   ar
    24    16    17   ar
    25    18    17   ar
