@<TRIPOS>MOLECULE
ZINC13094267_replica-1.pdb
 26 27 0 0 0
SMALL
GASTEIGER

@<TRIPOS>ATOM
      1  N1        -1.1320   28.5830   55.1040 N.3     0  <0>0       -0.1766
      2  H16       -1.7190   27.9630   55.5650 H       0  <0>0        0.1491
      3  C5         0.0230   28.0780   54.3580 C.3     0  <0>0        0.0976
      4  C4         0.8960   27.2280   55.2830 C.3     0  <0>0        0.0219
      5  C2         0.2170   27.0990   56.6480 C.3     0  <0>0        0.0017
      6  C1        -0.1320   25.6310   56.9070 C.3     0  <0>0        0.0001
      7  C3         1.1660   27.5980   57.7390 C.3     0  <0>0        0.0001
      8  C6        -0.4530   27.2350   53.2030 C.ar    0  <0>0       -0.0064
      9  C11       -1.2310   27.7990   52.2090 C.ar    0  <0>0       -0.0029
     10  C10       -1.6680   27.0260   51.1500 C.ar    0  <0>0       -0.0003
     11  C9        -1.3270   25.6880   51.0840 C.ar    0  <0>0       -0.0000
     12  C8        -0.5490   25.1240   52.0770 C.ar    0  <0>0       -0.0003
     13  C7        -0.1080   25.8980   53.1330 C.ar    0  <0>0       -0.0029
     14  S1        -1.4370   30.2100   55.1580 S.O2    0  <0>0        0.0626
     15  O1        -2.7500   30.3580   55.6810 O.2     0  <0>0       -0.1529
     16  O2        -1.0550   30.7370   53.8960 O.2     0  <0>0       -0.1529
     17  C12       -0.3400   30.9050   56.3480 C.ar    0  <0>0        0.1494
     18  C17       -0.4870   30.5940   57.6910 C.ar    0  <0>0        0.1586
     19  C16        0.3730   31.1380   58.6340 C.ar    0  <0>0        0.0312
     20  F1        -1.4720   29.7570   58.0840 F       0  <0>0       -0.2028
     21  C15        1.3820   31.9880   58.2380 C.ar    0  <0>0        0.0090
     22  C14        1.5330   32.3100   56.8870 C.ar    0  <0>0        0.0812
     23  C13        0.6630   31.7590   55.9430 C.ar    0  <0>0        0.0288
     24  C18        2.6090   33.2250   56.4580 C.2     0  <0>0        0.3878
     25  O3         2.3700   34.4030   56.2790 O.co2   0  <0>0       -0.2406
     26  O4         3.8580   32.7550   56.2730 O.co2   0  <0>0       -0.2406
@<TRIPOS>BOND
     1    11    10   ar
     2    11    12   ar
     3    10     9   ar
     4    12    13   ar
     5     9     8   ar
     6    13     8   ar
     7     8     3    1
     8    16    14    2
     9     3     1    1
    10     3     4    1
    11     1    14    1
    12     1     2    1
    13    14    15    2
    14    14    17    1
    15     4     5    1
    16    23    17   ar
    17    23    22   ar
    18    26    24   ar
    19    25    24   ar
    20    17    18   ar
    21    24    22    1
    22     5     6    1
    23     5     7    1
    24    22    21   ar
    25    18    20    1
    26    18    19   ar
    27    21    19   ar
