@<TRIPOS>MOLECULE
ZINC06762831_replica-1.pdb
 28 30 0 0 0
SMALL
GASTEIGER

@<TRIPOS>ATOM
      1  C8        -1.1280   29.9660   55.4430 C.3     0  <0>0        0.0551
      2  C7         0.3900   30.1540   55.3910 C.3     0  <0>0        0.0938
      3  C6         0.7450   31.5290   55.8970 C.2     0  <0>0        0.2231
      4  N1         2.0370   31.8970   55.9980 N.am    0  <0>0       -0.3059
      5  H14        2.7390   31.2770   55.7460 H       0  <0>0        0.1494
      6  O1        -0.1330   32.3030   56.2130 O.2     0  <0>0       -0.2751
      7  C2         2.3810   33.2330   56.4900 C.3     0  <0>0        0.0716
      8  C1         3.3930   33.8800   55.5420 C.3     0  <0>0        0.0213
      9  C3         2.9920   33.1190   57.8890 C.3     0  <0>0        0.0180
     10  C4         1.8800   33.1800   58.9370 C.3     0  <0>0        0.0017
     11  C5         3.7380   31.7890   58.0130 C.3     0  <0>0        0.0017
     12  C9        -1.4640   28.8540   56.4030 C.ar    0  <0>0       -0.0177
     13  C14       -0.4520   28.1070   56.9760 C.ar    0  <0>0       -0.0016
     14  C13       -0.7590   27.0910   57.8610 C.ar    0  <0>0        0.0293
     15  C12       -2.0820   26.8140   58.1640 C.ar    0  <0>0        0.1401
     16  C11       -3.0940   27.5580   57.5850 C.ar    0  <0>0        0.0293
     17  F1        -2.3830   25.8160   59.0250 F       0  <0>0       -0.2042
     18  C10       -2.7850   28.5780   56.7040 C.ar    0  <0>0       -0.0016
     19  C15       -1.6380   29.6160   54.0690 C.ar    0  <0>0        0.0004
     20  C18       -1.2870   28.4300   53.2850 C.ar    0  <0>0        0.0134
     21  C17       -2.0050   28.5330   52.0800 C.ar    0  <0>0        0.0563
     22  C19       -0.4530   27.3320   53.5070 C.ar    0  <0>0        0.0012
     23  N2        -2.7270   29.7050   52.1370 N.ar    0  <0>0       -0.3522
     24  C22       -1.8760   27.5340   51.1220 C.ar    0  <0>0        0.0170
     25  C16       -2.4950   30.3360   53.3290 C.ar    0  <0>0        0.0684
     26  H3        -3.3120   30.0330   51.4360 H       0  <0>0        0.1660
     27  C21       -1.0410   26.4630   51.3570 C.ar    0  <0>0        0.0015
     28  C20       -0.3380   26.3640   52.5500 C.ar    0  <0>0        0.0001
@<TRIPOS>BOND
     1    24    27   ar
     2    24    21   ar
     3    27    28   ar
     4    26    23    1
     5    21    23   ar
     6    21    20   ar
     7    23    25   ar
     8    28    22   ar
     9    20    22   ar
    10    20    19   ar
    11    25    19   ar
    12    19     1    1
    13     2     1    1
    14     2     3    1
    15     1    12    1
    16     8     7    1
    17     5     4    1
    18     3     4   am
    19     3     6    2
    20     4     7    1
    21    12    18   ar
    22    12    13   ar
    23     7     9    1
    24    18    16   ar
    25    13    14   ar
    26    16    15   ar
    27    14    15   ar
    28     9    11    1
    29     9    10    1
    30    15    17    1
