@<TRIPOS>MOLECULE
ZINC28563010_replica-1.pdb
 28 30 0 0 0
SMALL
GASTEIGER

@<TRIPOS>ATOM
      1  C8         7.2570   34.1980   59.1300 C.2     0  <0>0        0.1390
      2  N1         8.3730   34.4550   59.7600 N.2     0  <0>0       -0.3986
      3  C9         9.0680   33.4630   60.3170 C.2     0  <0>0        0.1737
      4  C10        8.5670   32.1910   60.1940 C.3     0  <0>0        0.1278
      5  S1         7.1130   32.4770   59.2920 S.3     0  <0>0       -0.0787
      6  C11       10.3290   33.7200   61.0330 C.2     0  <0>0        0.2760
      7  O1        11.0490   34.6370   60.6850 O.2     0  <0>0       -0.2673
      8  N2        10.6870   32.9380   62.0690 N.am    0  <0>0       -0.2773
      9  H7        10.0010   32.1580   62.4330 H       0  <0>0        0.1553
     10  C12       11.9310   33.1170   62.6820 C.ar    0  <0>0        0.0700
     11  C16       12.3280   34.3740   63.1200 C.ar    0  <0>0        0.1134
     12  N3        13.4970   34.5450   63.7030 N.ar    0  <0>0       -0.2386
     13  C15       14.3370   33.5450   63.8830 C.ar    0  <0>0        0.1527
     14  C14       14.0160   32.2650   63.4690 C.ar    0  <0>0        0.0244
     15  C13       12.7950   32.0380   62.8570 C.ar    0  <0>0        0.0177
     16  C17       15.6640   33.8000   64.5490 C.3     0  <0>0        0.4348
     17  F1        15.5640   34.9260   65.3740 F       0  <0>0       -0.1644
     18  F2        16.0200   32.6880   65.3200 F       0  <0>0       -0.1644
     19  F3        16.6410   34.0230   63.5730 F       0  <0>0       -0.1644
     20  C7         6.3250   35.1580   58.4360 C.3     0  <0>0        0.0935
     21  C4         7.0500   36.4510   58.1600 C.ar    0  <0>0        0.0066
     22  C3         6.9220   37.5150   59.0350 C.ar    0  <0>0        0.0549
     23  C2         7.5860   38.7020   58.7820 C.ar    0  <0>0        0.0111
     24 Cl          5.9280   37.3610   60.4500 Cl      0  <0>0       -0.0825
     25  C1         8.3770   38.8250   57.6550 C.ar    0  <0>0        0.0017
     26  C6         8.5040   37.7620   56.7800 C.ar    0  <0>0        0.0111
     27  C5         7.8450   36.5730   57.0350 C.ar    0  <0>0        0.0549
     28 Cl          8.0110   35.2360   55.9410 Cl      0  <0>0       -0.0825
@<TRIPOS>BOND
     1    28    27    1
     2    26    27   ar
     3    26    25   ar
     4    27    21   ar
     5    25    23   ar
     6    21    20    1
     7    21    22   ar
     8    20     1    1
     9    23    22   ar
    10    22    24    1
    11     1     5    1
    12     1     2    2
    13     5     4    1
    14     2     3    2
    15     4     3    1
    16     3     6    1
    17     7     6    2
    18     6     8   am
    19     8     9    1
    20     8    10    1
    21    10    15   ar
    22    10    11   ar
    23    15    14   ar
    24    11    12   ar
    25    14    13   ar
    26    19    16    1
    27    12    13   ar
    28    13    16    1
    29    16    18    1
    30    16    17    1
