@<TRIPOS>MOLECULE
ZINC20476190_replica-1.pdb
 22 23 0 0 0
SMALL
GASTEIGER

@<TRIPOS>ATOM
      1  C1        -2.7670   30.7140   54.9130 C.3     0  <0>0        0.0262
      2  C2        -2.1630   29.3080   54.9490 C.3     0  <0>0        0.0950
      3  C3        -1.8410   28.9370   56.3730 C.ar    0  <0>0        0.0296
      4  C8        -0.7070   29.4530   56.9860 C.ar    0  <0>0        0.1418
      5  C7        -0.4090   29.1040   58.2950 C.ar    0  <0>0        0.0368
      6  C6        -1.2470   28.2530   58.9890 C.ar    0  <0>0        0.0031
      7  C5        -2.3760   27.7400   58.3760 C.ar    0  <0>0       -0.0001
      8  C4        -2.6710   28.0820   57.0700 C.ar    0  <0>0        0.0003
      9  O1         0.1110   30.2950   56.3020 O.3     0  <0>0       -0.4239
     10  C9         0.3730   31.5690   56.8950 C.3     0  <0>0        0.5086
     11  F1        -0.8390   32.2150   57.1660 F       0  <0>0       -0.1550
     12  F2         1.1290   32.3470   56.0140 F       0  <0>0       -0.1550
     13  N1        -0.9340   29.2820   54.1450 N.pl3   0  <0>0       -0.3270
     14  H10       -0.1980   30.0930   54.2400 H       0  <0>0        0.1472
     15  C10       -0.8930   28.1450   53.3290 C.ar    0  <0>0        0.1004
     16  C15       -1.5710   28.1350   52.1150 C.ar    0  <0>0        0.1553
     17  C14       -1.5270   27.0110   51.3100 C.ar    0  <0>0        0.0311
     18  F3        -2.2700   29.2220   51.7220 F       0  <0>0       -0.2028
     19  C13       -0.8120   25.8980   51.7120 C.ar    0  <0>0        0.0047
     20  C12       -0.1370   25.9040   52.9190 C.ar    0  <0>0        0.0311
     21  C11       -0.1710   27.0260   53.7260 C.ar    0  <0>0        0.1553
     22  F4         0.4930   27.0330   54.9040 F       0  <0>0       -0.2028
@<TRIPOS>BOND
     1    17    19   ar
     2    17    16   ar
     3    19    20   ar
     4    18    16    1
     5    16    15   ar
     6    20    21   ar
     7    15    21   ar
     8    15    13    1
     9    21    22    1
    10    13    14    1
    11    13     2    1
    12     1     2    1
    13     2     3    1
    14    12    10    1
    15     9    10    1
    16     9     4    1
    17     3     4   ar
    18     3     8   ar
    19    10    11    1
    20     4     5   ar
    21     8     7   ar
    22     5     6   ar
    23     7     6   ar
