@<TRIPOS>MOLECULE
ZINC08303498_replica-1.pdb
 27 29 0 0 0
SMALL
GASTEIGER

@<TRIPOS>ATOM
      1  C1         2.3490   32.5430   57.7830 C.3     0  <0>0        0.1157
      2  N1         1.2730   33.4790   57.4450 N.am    0  <0>0       -0.2656
      3  C10        1.5680   34.6770   56.9040 C.2     0  <0>0        0.2554
      4  O2         0.6770   35.4680   56.6520 O.2     0  <0>0       -0.2693
      5  C2        -0.1230   33.1110   57.6940 C.3     0  <0>0        0.1797
      6  C3        -0.4800   31.9030   56.8680 C.2     0  <0>0        0.2464
      7  O1        -0.8270   30.8770   57.4130 O.2     0  <0>0       -0.2729
      8  N2        -0.4150   31.9620   55.5230 N.am    0  <0>0       -0.2825
      9  H6        -0.2030   32.8020   55.0840 H       0  <0>0        0.1549
     10  C4        -0.6520   30.8140   54.7580 C.ar    0  <0>0        0.0505
     11  C9        -1.8090   30.7150   53.9950 C.ar    0  <0>0        0.0170
     12  C8        -2.0420   29.5810   53.2420 C.ar    0  <0>0        0.0309
     13  C7        -1.1240   28.5440   53.2470 C.ar    0  <0>0        0.1402
     14  C6         0.0300   28.6420   54.0070 C.ar    0  <0>0        0.0309
     15  F1        -1.3550   27.4360   52.5090 F       0  <0>0       -0.2042
     16  C5         0.2690   29.7760   54.7560 C.ar    0  <0>0        0.0170
     17  C11        2.9620   35.0290   56.6170 C.ar    0  <0>0        0.0824
     18  S1         3.9230   34.7130   55.1510 S.2     0  <0>0       -0.0871
     19  C14        5.4020   35.4780   55.6490 C.ar    0  <0>0        0.0034
     20  C13        5.1620   35.8950   56.9080 C.ar    0  <0>0       -0.0195
     21  C15        6.5840   35.6340   54.7270 C.3     0  <0>0        0.0326
     22  C12        3.8750   35.6890   57.4100 C.ar    0  <0>0        0.0069
     23  C20        6.2240   36.4750   57.8310 C.3     0  <0>0        0.0266
     24  C19        7.1320   35.3410   58.3090 C.3     0  <0>0        0.0047
     25  C18        7.6760   34.5940   57.0880 C.3     0  <0>0        0.0004
     26  C17        8.5300   35.5740   56.3090 C.3     0  <0>0        0.0004
     27  C16        7.7140   36.4420   55.3640 C.3     0  <0>0        0.0052
@<TRIPOS>BOND
     1    15    13    1
     2    12    13   ar
     3    12    11   ar
     4    13    14   ar
     5    11    10   ar
     6    14    16   ar
     7    21    27    1
     8    21    19    1
     9    16    10   ar
    10    10     8    1
    11     9     8    1
    12    18    19   ar
    13    18    17   ar
    14    27    26    1
    15     8     6   am
    16    19    20   ar
    17    26    25    1
    18    17     3    1
    19    17    22   ar
    20     4     3    2
    21     6     7    2
    22     6     5    1
    23     3     2   am
    24    20    22   ar
    25    20    23    1
    26    25    24    1
    27     2     5    1
    28     2     1    1
    29    23    24    1
