@<TRIPOS>MOLECULE
ZINC36990737_replica-1.pdb
 22 23 0 0 0
SMALL
GASTEIGER

@<TRIPOS>ATOM
      1  C9         6.1050   36.2240   57.3330 C.ar    0  <0>0        0.0551
      2  C10        5.0060   36.1270   58.1780 C.ar    0  <0>0        0.0126
      3  C11        3.7490   35.9360   57.6480 C.ar    0  <0>0        0.0017
      4  C12        3.5620   35.8390   56.2750 C.ar    0  <0>0        0.0477
      5  C13        4.6660   35.9360   55.4320 C.ar    0  <0>0        0.0270
      6  C14        5.9270   36.1340   55.9580 C.ar    0  <0>0        0.0719
      7 Cl          7.2950   36.2620   54.8980 Cl      0  <0>0       -0.0809
      8  N2         2.2070   35.6480   55.9860 N.am    0  <0>0       -0.2839
      9  C15        1.4520   35.6090   57.0950 C.2     0  <0>0        0.2306
     10  O1         0.2490   35.4550   57.1440 O.2     0  <0>0       -0.2744
     11  C16        2.3810   35.7920   58.2760 C.3     0  <0>0        0.1129
     12  H21        1.8540   35.5540   55.0870 H       0  <0>0        0.1549
     13  N1         7.3860   36.4180   57.8650 N.pl3   0  <0>0       -0.3334
     14  H18        8.1560   36.0210   57.4310 H       0  <0>0        0.1468
     15  C6         7.5610   37.2200   59.0790 C.3     0  <0>0        0.0690
     16  C5         8.1460   36.3440   60.1880 C.3     0  <0>0        0.0195
     17  C3         9.6730   36.3540   60.0940 C.3     0  <0>0        0.0016
     18  C4        10.1560   35.0300   59.5000 C.3     0  <0>0        0.0001
     19  C2        10.2700   36.5340   61.4920 C.3     0  <0>0        0.0001
     20  C1        11.2680   35.4090   61.7690 C.3     0  <0>0        0.0000
     21  C7         8.5130   38.3820   58.7890 C.3     0  <0>0        0.0195
     22  C8         8.5280   38.6670   57.2860 C.3     0  <0>0        0.0017
@<TRIPOS>BOND
     1     7     6    1
     2    12     8    1
     3     5     6   ar
     4     5     4   ar
     5     6     1   ar
     6     8     4    1
     7     8     9   am
     8     4     3   ar
     9     9    10    2
    10     9    11    1
    11    22    21    1
    12     1    13    1
    13     1     2   ar
    14    14    13    1
    15     3     2   ar
    16     3    11    1
    17    13    15    1
    18    21    15    1
    19    15    16    1
    20    18    17    1
    21    17    16    1
    22    17    19    1
    23    19    20    1
