@<TRIPOS>MOLECULE
ZINC02206924_replica-1.pdb
 28 31 0 0 0
SMALL
GASTEIGER

@<TRIPOS>ATOM
      1  C5         5.3680   35.6310   57.1980 C.ar    0  <0>0        0.0509
      2  C6         4.6070   36.0400   56.1010 C.ar    0  <0>0        0.0147
      3  C7         3.5440   35.2970   55.6850 C.ar    0  <0>0        0.0043
      4  C8         3.2080   34.1130   56.3600 C.ar    0  <0>0        0.0351
      5  C9         2.1050   33.3350   55.9260 C.ar    0  <0>0        0.0126
      6  C10        1.7950   32.1770   56.6160 C.ar    0  <0>0        0.1116
      7  C11        2.6260   31.7920   57.7610 C.ar    0  <0>0        0.3487
      8  O1         2.3730   30.7730   58.3770 O.2     0  <0>0       -0.2444
      9  O2         3.6640   32.5590   58.1310 O.2     0  <0>0       -0.4209
     10  C12        3.9710   33.6960   57.4670 C.ar    0  <0>0        0.1499
     11  C13        5.0510   34.4640   57.8780 C.ar    0  <0>0        0.0521
     12  C14        0.6530   31.3410   56.2010 C.2     0  <0>0        0.1632
     13  S1        -1.0720   31.4780   56.6500 S.3     0  <0>0       -0.0746
     14  C16       -1.6620   30.0860   55.6950 C.3     0  <0>0        0.1233
     15  C15       -0.4910   29.6480   55.1340 C.2     0  <0>0        0.1208
     16  N2         0.6340   30.2850   55.4010 N.2     0  <0>0       -0.3989
     17  C17       -0.4870   28.4670   54.2360 C.ar    0  <0>0        0.0264
     18  C22       -1.1670   28.5110   53.0190 C.ar    0  <0>0        0.0031
     19  C21       -1.1610   27.4110   52.1880 C.ar    0  <0>0        0.0115
     20  C20       -0.4820   26.2630   52.5600 C.ar    0  <0>0        0.0577
     21  C19        0.1950   26.2130   53.7670 C.ar    0  <0>0        0.0115
     22 Cl         -0.4780   24.8820   51.5090 Cl      0  <0>0       -0.0822
     23  C18        0.1990   27.3110   54.6030 C.ar    0  <0>0        0.0031
     24  N1         6.4520   36.3970   57.6110 N.pl3   0  <0>0       -0.3074
     25  C2         7.1530   37.2540   56.6500 C.3     0  <0>0        0.0908
     26  C1         8.1360   36.4090   55.8370 C.3     0  <0>0        0.0232
     27  C3         6.8930   36.3510   59.0080 C.3     0  <0>0        0.0908
     28  C4         6.2510   37.5030   59.7840 C.3     0  <0>0        0.0232
@<TRIPOS>BOND
     1    22    20    1
     2    19    20   ar
     3    19    18   ar
     4    20    21   ar
     5    18    17   ar
     6    21    23   ar
     7    17    23   ar
     8    17    15    1
     9    15    16    2
    10    15    14    1
    11    16    12    2
    12     3     2   ar
    13     3     4   ar
    14    14    13    1
    15    26    25    1
    16     5     4   ar
    17     5     6   ar
    18     2     1   ar
    19    12     6    1
    20    12    13    1
    21     4    10   ar
    22     6     7   ar
    23    25    24    1
    24     1    24    1
    25     1    11   ar
    26    10    11   ar
    27    10     9   ar
    28    24    27    1
    29     7     9   ar
    30     7     8    2
    31    27    28    1
