@<TRIPOS>MOLECULE
ZINC04862872_replica-1.pdb
 28 31 0 0 0
SMALL
GASTEIGER

@<TRIPOS>ATOM
      1  C9        -0.5490   29.6520   56.3230 C.2     0  <0>0        0.1924
      2  N1        -0.1720   30.8740   56.0270 N.2     0  <0>0       -0.3898
      3  C10        0.2270   31.7400   56.9770 C.2     0  <0>0        0.1231
      4  C11        0.6270   33.0420   56.6560 C.2     0  <0>0        0.0284
      5  C12        1.0260   33.8930   57.6480 C.2     0  <0>0        0.0020
      6  C13        1.0420   33.4860   58.9760 C.2     0  <0>0       -0.0036
      7  C14        0.6530   32.2100   59.3230 C.2     0  <0>0       -0.0103
      8  C15        0.2420   31.3240   58.3280 C.3     0  <0>0        0.1514
      9  C16       -0.1830   29.9530   58.6400 C.2     0  <0>0        0.2453
     10  O1        -0.1900   29.5390   59.7840 O.2     0  <0>0       -0.2733
     11  N2        -0.5700   29.1680   57.6080 N.am    0  <0>0       -0.2117
     12  C8        -0.9710   28.7670   55.2360 C.2     0  <0>0        0.0484
     13  C7        -0.0750   28.3510   54.3180 C.2     0  <0>0        0.0048
     14  C5        -0.4990   27.4610   53.2260 C.ar    0  <0>0        0.0107
     15  C4        -0.1670   26.1020   53.2550 C.ar    0  <0>0        0.0576
     16  C3        -0.5680   25.2750   52.2250 C.ar    0  <0>0        0.0114
     17 Cl          0.7460   25.4580   54.5830 Cl      0  <0>0       -0.0822
     18  C2        -1.2970   25.7870   51.1670 C.ar    0  <0>0        0.0009
     19  C1        -1.6280   27.1310   51.1300 C.ar    0  <0>0        0.0001
     20  C6        -1.2350   27.9700   52.1510 C.ar    0  <0>0        0.0008
     21  C17       -0.9890   27.8530   57.8510 C.ar    0  <0>0        0.0606
     22  C22       -0.0640   26.8160   57.8390 C.ar    0  <0>0        0.0184
     23  C21       -0.4780   25.5210   58.0800 C.ar    0  <0>0        0.0379
     24  C20       -1.8160   25.2550   58.3330 C.ar    0  <0>0        0.1338
     25  C19       -2.7390   26.2910   58.3450 C.ar    0  <0>0        0.0379
     26  C18       -2.3270   27.5870   58.1100 C.ar    0  <0>0        0.0184
     27  O2        -2.2220   23.9790   58.5700 O.3     0  <0>0       -0.5055
     28  H15       -1.5110   23.3830   58.8380 H       0  <0>0        0.2922
@<TRIPOS>BOND
     1    19    18   ar
     2    19    20   ar
     3    18    16   ar
     4    20    14   ar
     5    16    15   ar
     6    14    15   ar
     7    14    13    1
     8    15    17    1
     9    13    12    2
    10    12     1    1
    11     2     1    2
    12     2     3    2
    13     1    11    1
    14     4     3    1
    15     4     5    2
    16     3     8    1
    17    11    21    1
    18    11     9   am
    19     5     6    1
    20    22    21   ar
    21    22    23   ar
    22    21    26   ar
    23    23    24   ar
    24    26    25   ar
    25     8     9    1
    26     8     7    1
    27    24    25   ar
    28    24    27    1
    29    27    28    1
    30     9    10    2
    31     6     7    2
