@<TRIPOS>MOLECULE
ZINC32787751_replica-1.pdb
 27 29 0 0 0
SMALL
GASTEIGER

@<TRIPOS>ATOM
      1  N1         8.9970   33.3170   58.3120 N.am    0  <0>0       -0.2950
      2  C11        8.8130   33.3940   59.6450 C.2     0  <0>0        0.2807
      3  O3         7.8790   32.8120   60.1650 O.2     0  <0>0       -0.2668
      4  H14        9.8410   33.8430   57.8420 H       0  <0>0        0.1500
      5  C10        8.0750   32.5300   57.4890 C.3     0  <0>0        0.1374
      6  C9         7.4140   33.4400   56.4520 C.3     0  <0>0        0.2265
      7  O2         7.2020   34.7340   57.0190 O.3     0  <0>0       -0.4736
      8  C6         5.9160   35.0990   57.2650 C.ar    0  <0>0        0.1388
      9  C5         5.1800   35.7480   56.2850 C.ar    0  <0>0        0.0400
     10  C4         3.8730   36.1180   56.5340 C.ar    0  <0>0        0.0400
     11  C3         3.2960   35.8400   57.7640 C.ar    0  <0>0        0.1388
     12  C8         4.0320   35.1910   58.7440 C.ar    0  <0>0        0.0400
     13  C7         5.3370   34.8170   58.4940 C.ar    0  <0>0        0.0400
     14  O1         2.0090   36.2050   58.0110 O.3     0  <0>0       -0.4755
     15  C2         0.9970   35.6030   57.2010 C.3     0  <0>0        0.2055
     16  C1         0.4700   34.3460   57.8960 C.3     0  <0>0        0.0512
     17  C12        9.7340   34.1800   60.4660 C.ar    0  <0>0        0.1984
     18  O4        10.7720   33.6970   61.1820 O.2     0  <0>0       -0.4458
     19  C15       11.3940   34.7040   61.8100 C.ar    0  <0>0        0.1798
     20  C14       10.7750   35.8640   61.5160 C.ar    0  <0>0        0.0438
     21  C13        9.7000   35.5550   60.6500 C.ar    0  <0>0        0.0423
     22  C16        8.7300   36.5070   60.0590 C.ar    0  <0>0        0.0032
     23  C21        9.0040   37.1150   58.8340 C.ar    0  <0>0        0.0001
     24  C20        8.0980   38.0000   58.2890 C.ar    0  <0>0        0.0000
     25  C19        6.9190   38.2860   58.9540 C.ar    0  <0>0        0.0000
     26  C18        6.6420   37.6860   60.1700 C.ar    0  <0>0        0.0000
     27  C17        7.5380   36.7950   60.7230 C.ar    0  <0>0        0.0001
@<TRIPOS>BOND
     1     9    10   ar
     2     9     8   ar
     3     6     7    1
     4     6     5    1
     5    10    11   ar
     6     7     8    1
     7    15    16    1
     8    15    14    1
     9     8    13   ar
    10     5     1    1
    11    11    14    1
    12    11    12   ar
    13     4     1    1
    14    24    23   ar
    15    24    25   ar
    16     1     2   am
    17    13    12   ar
    18    23    22   ar
    19    25    26   ar
    20     2     3    2
    21     2    17    1
    22    22    21    1
    23    22    27   ar
    24    26    27   ar
    25    17    21   ar
    26    17    18   ar
    27    21    20   ar
    28    18    19   ar
    29    20    19   ar
