@<TRIPOS>MOLECULE
ZINC40245199_replica-1.pdb
 22 25 0 0 0
SMALL
GASTEIGER

@<TRIPOS>ATOM
      1  C7         8.0570   36.3990   56.8850 C.ar    0  <0>0        0.0091
      2  C8         7.5900   37.6430   57.2770 C.ar    0  <0>0        0.0015
      3  C9         7.9550   38.1780   58.4950 C.ar    0  <0>0        0.0373
      4  C10        8.7990   37.4690   59.3420 C.ar    0  <0>0        0.1453
      5  C11        9.2680   36.2100   58.9430 C.ar    0  <0>0        0.0373
      6  C12        8.8900   35.6780   57.7160 C.ar    0  <0>0        0.0015
      7  C13       10.1240   35.7350   60.0480 C.ar    0  <0>0        0.0375
      8  C14       10.8690   34.5810   60.2650 C.ar    0  <0>0        0.0031
      9  C15       11.5810   34.4380   61.4380 C.ar    0  <0>0        0.0002
     10  C16       11.5520   35.4390   62.3960 C.ar    0  <0>0        0.0031
     11  C17       10.8160   36.5870   62.1910 C.ar    0  <0>0        0.0375
     12  C18       10.0940   36.7500   61.0150 C.ar    0  <0>0        0.1453
     13  O1         9.3050   37.7500   60.5640 O.2     0  <0>0       -0.4535
     14  C6         7.6490   35.8290   55.5520 C.3     0  <0>0        0.1606
     15  C5         6.2780   35.2130   55.6670 C.ar    0  <0>0        0.0340
     16  C2         5.9380   33.9090   55.8150 C.ar    0  <0>0       -0.0167
     17  C1         7.0010   32.8440   55.8860 C.3     0  <0>0        0.0313
     18  C3         4.6000   33.5720   55.9060 C.ar    0  <0>0        0.0030
     19  C4         3.6690   34.5550   55.8390 C.ar    0  <0>0        0.0349
     20  S1         4.6820   36.0110   55.6410 S.2     0  <0>0       -0.0884
     21  O2         7.6220   36.8710   54.5750 O.3     0  <0>0       -0.3751
     22  H14        6.9780   36.7300   53.8670 H       0  <0>0        0.2113
@<TRIPOS>BOND
     1    22    21    1
     2    21    14    1
     3    14    15    1
     4    14     1    1
     5    20    15   ar
     6    20    19   ar
     7    15    16   ar
     8    16    17    1
     9    16    18   ar
    10    19    18   ar
    11     1     2   ar
    12     1     6   ar
    13     2     3   ar
    14     6     5   ar
    15     3     4   ar
    16     5     4   ar
    17     5     7   ar
    18     4    13   ar
    19     7     8   ar
    20     7    12   ar
    21     8     9   ar
    22    13    12   ar
    23    12    11   ar
    24     9    10   ar
    25    11    10   ar
