@<TRIPOS>MOLECULE
ZINC05636636_replica-1.pdb
 30 32 0 0 0
SMALL
GASTEIGER

@<TRIPOS>ATOM
      1  C8         8.3610   36.0750   57.5860 C.ar    0  <0>0        0.0676
      2  C9         8.9360   34.8600   57.9500 C.ar    0  <0>0        0.0157
      3  C10        9.6770   34.7670   59.1070 C.ar    0  <0>0       -0.0016
      4  C11        9.8400   35.8900   59.9230 C.ar    0  <0>0       -0.0046
      5  C12        9.2570   37.1070   59.5580 C.ar    0  <0>0        0.0224
      6  C13        8.5220   37.1940   58.3970 C.ar    0  <0>0        0.1556
      7  C14       10.6270   35.7920   61.1650 C.3     0  <0>0        0.0959
      8  N3        11.6270   34.9730   61.2350 N.3     0  <0>0       -0.2900
      9  H18       11.8900   34.3500   60.3670 H       0  <0>0        0.1239
     10  C15       12.4090   34.8740   62.4700 C.3     0  <0>0        0.0959
     11  C16       12.4600   33.4370   62.9190 C.ar    0  <0>0       -0.0063
     12  C21       11.3120   32.6670   62.9060 C.ar    0  <0>0       -0.0021
     13  C20       11.3590   31.3490   63.3170 C.ar    0  <0>0        0.0111
     14  C19       12.5550   30.7980   63.7410 C.ar    0  <0>0        0.0577
     15  C18       13.7040   31.5680   63.7530 C.ar    0  <0>0        0.0111
     16 Cl         12.6140   29.1420   64.2570 Cl      0  <0>0       -0.0822
     17  C17       13.6580   32.8860   63.3370 C.ar    0  <0>0       -0.0021
     18  N2         7.9040   38.4830   58.0090 N.pl3   0  <0>0        0.0589
     19  O1         8.0800   38.9310   56.8910 O.2     0  <0>0       -0.1261
     20  O2         7.2200   39.0950   58.8110 O.2     0  <0>0       -0.1261
     21  N1         7.6180   36.1670   56.4130 N.pl3   0  <0>0       -0.3278
     22  H7         7.6840   37.0710   55.7900 H       0  <0>0        0.1472
     23  C7         6.7480   35.0610   56.0080 C.3     0  <0>0        0.1143
     24  C6         5.4000   35.2160   56.6630 C.ar    0  <0>0       -0.0026
     25  C1         5.1500   34.6130   57.8810 C.ar    0  <0>0       -0.0018
     26  C2         3.9140   34.7560   58.4830 C.ar    0  <0>0        0.0111
     27  C3         2.9260   35.5030   57.8670 C.ar    0  <0>0        0.0577
     28  C4         3.1780   36.1080   56.6470 C.ar    0  <0>0        0.0111
     29 Cl          1.3740   35.6820   58.6220 Cl      0  <0>0       -0.0822
     30  C5         4.4130   35.9630   56.0460 C.ar    0  <0>0       -0.0018
@<TRIPOS>BOND
     1    22    21    1
     2    23    21    1
     3    23    24    1
     4    30    28   ar
     5    30    24   ar
     6    21     1    1
     7    28    27   ar
     8    24    25   ar
     9    19    18    2
    10     1     2   ar
    11     1     6   ar
    12    27    26   ar
    13    27    29    1
    14    25    26   ar
    15     2     3   ar
    16    18     6    1
    17    18    20    2
    18     6     5   ar
    19     3     4   ar
    20     5     4   ar
    21     4     7    1
    22     9     8    1
    23     7     8    1
    24     8    10    1
    25    10    11    1
    26    12    11   ar
    27    12    13   ar
    28    11    17   ar
    29    13    14   ar
    30    17    15   ar
    31    14    15   ar
    32    14    16    1
