@<TRIPOS>MOLECULE
ZINC48544980_replica-1.pdb
 18 19 0 0 0
SMALL
GASTEIGER

@<TRIPOS>ATOM
      1  C9         6.3900   34.7700   58.2720 C.ar    0  <0>0        0.1086
      2  C10        5.1800   35.3690   57.9100 C.ar    0  <0>0        0.1183
      3  C11        4.2060   35.3430   58.9100 C.ar    0  <0>0        0.1574
      4  N2         4.5220   34.7770   60.0410 N.ar    0  <0>0       -0.1958
      5  S1         6.0960   34.2520   59.8400 S.2     0  <0>0        0.0296
      6 Cl          2.6350   36.0370   58.6550 Cl      0  <0>0       -0.0599
      7  C12        4.9600   35.9590   56.6250 C.1     0  <0>0        0.1047
      8  N3         4.7850   36.4290   55.6060 N.1     0  <0>0       -0.1907
      9  N1         7.5410   34.6320   57.5200 N.pl3   0  <0>0       -0.2952
     10  C1         7.7950   33.3860   56.7920 C.3     0  <0>0        0.1130
     11  C2         8.5080   35.7300   57.4520 C.3     0  <0>0        0.1187
     12  C3         9.1870   35.8830   58.7900 C.ar    0  <0>0        0.0038
     13  C8         8.9610   37.0130   59.5540 C.ar    0  <0>0        0.0322
     14  C7         9.5800   37.1520   60.7830 C.ar    0  <0>0        0.0064
     15 Br          7.7990   38.3660   58.9230 Br      0  <0>0       -0.0493
     16  C6        10.4330   36.1670   61.2420 C.ar    0  <0>0        0.0005
     17  C5        10.6630   35.0390   60.4750 C.ar    0  <0>0       -0.0002
     18  C4        10.0400   34.8980   59.2480 C.ar    0  <0>0       -0.0021
@<TRIPOS>BOND
     1     8     7    3
     2     7     2    1
     3    10     9    1
     4    11     9    1
     5    11    12    1
     6     9     1    1
     7     2     1   ar
     8     2     3   ar
     9     1     5   ar
    10     6     3    1
    11    12    18   ar
    12    12    13   ar
    13     3     4   ar
    14    15    13    1
    15    18    17   ar
    16    13    14   ar
    17     5     4   ar
    18    17    16   ar
    19    14    16   ar
