@<TRIPOS>MOLECULE
ZINC36953365_replica-1.pdb
 22 23 0 0 0
SMALL
GASTEIGER

@<TRIPOS>ATOM
      1  N1         0.5920   30.1790   55.3460 N.pl3   0  <0>0       -0.3291
      2  H14        1.3050   29.9240   54.7420 H       0  <0>0        0.1471
      3  C8         0.6740   31.3810   56.0550 C.ar    0  <0>0        0.0448
      4  C7         1.7880   32.1970   55.9150 C.ar    0  <0>0        0.0140
      5  C6         1.8650   33.3850   56.6160 C.ar    0  <0>0       -0.0030
      6  C5         0.8350   33.7600   57.4580 C.ar    0  <0>0       -0.0224
      7  C10       -0.2740   32.9470   57.6040 C.ar    0  <0>0       -0.0030
      8  C9        -0.3600   31.7610   56.9010 C.ar    0  <0>0        0.0140
      9  C3         0.9220   35.0560   58.2220 C.3     0  <0>0        0.0223
     10  C4         1.1920   34.7600   59.6980 C.3     0  <0>0        0.0047
     11  C2         2.0620   35.9060   57.6560 C.3     0  <0>0        0.0044
     12  C1         3.1790   36.0190   58.6950 C.3     0  <0>0        0.0003
     13  C11       -0.5710   29.3060   55.5170 C.3     0  <0>0        0.1137
     14  C12       -0.5470   28.2260   54.4670 C.ar    0  <0>0       -0.0105
     15  C17        0.1120   27.0360   54.7130 C.ar    0  <0>0       -0.0248
     16  C16        0.1300   26.0430   53.7510 C.ar    0  <0>0       -0.0088
     17  C18        0.8050   26.8180   56.0330 C.3     0  <0>0        0.0307
     18  C15       -0.5020   26.2450   52.5390 C.ar    0  <0>0       -0.0225
     19  C14       -1.1560   27.4370   52.2900 C.ar    0  <0>0       -0.0088
     20  C19       -0.4790   25.1650   51.4880 C.3     0  <0>0        0.0310
     21  C13       -1.1790   28.4270   53.2530 C.ar    0  <0>0       -0.0248
     22  C20       -1.8910   29.7270   52.9820 C.3     0  <0>0        0.0307
@<TRIPOS>BOND
     1    20    18    1
     2    19    18   ar
     3    19    21   ar
     4    18    16   ar
     5    22    21    1
     6    21    14   ar
     7    16    15   ar
     8    14    15   ar
     9    14    13    1
    10    15    17    1
    11     2     1    1
    12     1    13    1
    13     1     3    1
    14     4     3   ar
    15     4     5   ar
    16     3     8   ar
    17     5     6   ar
    18     8     7   ar
    19     6     7   ar
    20     6     9    1
    21    11     9    1
    22    11    12    1
    23     9    10    1
