@<TRIPOS>MOLECULE
ZINC64638114_replica-1.pdb
 23 24 0 0 0
SMALL
GASTEIGER

@<TRIPOS>ATOM
      1  N1        -0.9890   30.4610   55.7660 N.3     0  <0>0       -0.2924
      2  H14       -1.8050   29.8760   55.8690 H       0  <0>0        0.1236
      3  C5         0.0840   30.0330   56.6730 C.3     0  <0>0        0.0828
      4  C2        -0.4520   28.9700   57.6320 C.3     0  <0>0        0.0176
      5  C1        -0.4360   29.5160   59.0610 C.3     0  <0>0        0.0017
      6  C3         0.4290   27.7200   57.5540 C.3     0  <0>0        0.0017
      7  C4        -1.8870   28.6070   57.2410 C.3     0  <0>0        0.0017
      8  C6         0.5770   31.2190   57.4620 C.ar    0  <0>0        0.0215
      9  S1         2.1270   31.4300   58.3230 S.2     0  <0>0       -0.0895
     10  C9         1.8480   33.0810   58.9430 C.ar    0  <0>0        0.0352
     11  C8         0.6090   33.3540   58.4640 C.ar    0  <0>0        0.0072
     12  C7        -0.0420   32.4000   57.7050 C.ar    0  <0>0        0.0040
     13  C10       -0.5250   30.4770   54.3730 C.3     0  <0>0        0.1030
     14  C11       -1.6360   29.9560   53.4590 C.3     0  <0>0        0.1485
     15  C12       -1.2780   28.5780   52.9670 C.ar    0  <0>0        0.0078
     16  C17       -0.5100   27.7410   53.7540 C.ar    0  <0>0        0.0277
     17  C16       -0.1860   26.4730   53.3040 C.ar    0  <0>0        0.1399
     18  C15       -0.6220   26.0480   52.0610 C.ar    0  <0>0        0.0296
     19  F1         0.5590   25.6510   54.0760 F       0  <0>0       -0.2042
     20  C14       -1.3860   26.8880   51.2720 C.ar    0  <0>0        0.0021
     21  C13       -1.7130   28.1520   51.7250 C.ar    0  <0>0       -0.0018
     22  O1        -2.8640   29.8970   54.1890 O.3     0  <0>0       -0.3786
     23  H22       -3.4540   29.1840   53.9100 H       0  <0>0        0.2108
@<TRIPOS>BOND
     1    20    21   ar
     2    20    18   ar
     3    21    15   ar
     4    18    17   ar
     5    15    14    1
     6    15    16   ar
     7    17    16   ar
     8    17    19    1
     9    14    22    1
    10    14    13    1
    11    23    22    1
    12    13     1    1
    13     1     2    1
    14     1     3    1
    15     3     8    1
    16     3     4    1
    17     7     4    1
    18     8    12   ar
    19     8     9   ar
    20     6     4    1
    21     4     5    1
    22    12    11   ar
    23     9    10   ar
    24    11    10   ar
