@<TRIPOS>MOLECULE
ZINC37112509_replica-1.pdb
 20 20 0 0 0
SMALL
GASTEIGER

@<TRIPOS>ATOM
      1  C7         9.0150   36.2390   59.4630 C.ar    0  <0>0        0.0609
      2  C8         9.4180   36.9890   60.5580 C.ar    0  <0>0        0.0157
      3  C9        10.3680   36.4870   61.4270 C.ar    0  <0>0        0.0052
      4  C10       10.9210   35.2390   61.2080 C.ar    0  <0>0        0.0727
      5  C11       10.5260   34.4850   60.1190 C.ar    0  <0>0        0.0192
      6  C12        9.5690   34.9780   59.2450 C.ar    0  <0>0        0.0550
      7  N1         8.0530   36.7450   58.5810 N.pl3   0  <0>0       -0.3082
      8  C3         8.4690   37.4730   57.3800 C.3     0  <0>0        0.0729
      9  C4         8.5740   38.9660   57.7000 C.3     0  <0>0        0.0214
     10  C2         7.4380   37.2600   56.2710 C.3     0  <0>0        0.0197
     11  C1         7.9910   36.2720   55.2420 C.3     0  <0>0        0.0018
     12  C5         6.6280   36.5470   58.8600 C.3     0  <0>0        0.0908
     13  C6         6.1760   37.5370   59.9350 C.3     0  <0>0        0.0232
     14  N2         9.1630   34.2140   58.1440 N.pl3   0  <0>0       -0.3560
     15  H18        9.7120   33.4760   57.8370 H       0  <0>0        0.1424
     16  H19        8.3320   34.4240   57.6890 H       0  <0>0        0.1424
     17  C13       11.9580   34.6990   62.1600 C.3     0  <0>0        0.4186
     18  F1        11.4710   33.5390   62.7710 F       0  <0>0       -0.1659
     19  F2        13.1270   34.3980   61.4530 F       0  <0>0       -0.1659
     20  F3        12.2380   35.6590   63.1370 F       0  <0>0       -0.1659
@<TRIPOS>BOND
     1    11    10    1
     2    10     8    1
     3     8     9    1
     4     8     7    1
     5    16    14    1
     6    15    14    1
     7    14     6    1
     8     7    12    1
     9     7     1    1
    10    12    13    1
    11     6     1   ar
    12     6     5   ar
    13     1     2   ar
    14     5     4   ar
    15     2     3   ar
    16     4     3   ar
    17     4    17    1
    18    19    17    1
    19    17    18    1
    20    17    20    1
