@<TRIPOS>MOLECULE
ZINC57456175_replica-1.pdb
 26 27 0 0 0
SMALL
GASTEIGER

@<TRIPOS>ATOM
      1  C9        10.3300   36.0920   61.2160 C.ar    0  <0>0       -0.0130
      2  C10        9.0500   36.5000   61.5450 C.ar    0  <0>0       -0.0024
      3  C11        7.9690   36.0290   60.8260 C.ar    0  <0>0        0.0177
      4  C12        8.1680   35.1460   59.7730 C.ar    0  <0>0        0.0910
      5  C13        9.4550   34.7390   59.4450 C.ar    0  <0>0        0.0177
      6  C14       10.5330   35.2180   60.1640 C.ar    0  <0>0       -0.0024
      7  C8        11.5080   36.6070   62.0020 C.3     0  <0>0        0.1113
      8  C7        12.0600   35.5000   62.8630 C.2     0  <0>0        0.2269
      9  N1        12.4790   34.3510   62.2960 N.am    0  <0>0       -0.3057
     10  H14       12.4230   34.2360   61.3350 H       0  <0>0        0.1494
     11  O1        12.1290   35.6440   64.0650 O.2     0  <0>0       -0.2747
     12  C3        13.0170   33.2760   63.1330 C.3     0  <0>0        0.0715
     13  C2        14.5310   33.1860   62.9370 C.3     0  <0>0        0.0196
     14  C1        15.2390   33.7370   64.1760 C.3     0  <0>0        0.0017
     15  C4        12.3710   31.9470   62.7330 C.3     0  <0>0        0.0180
     16  C5        12.8720   30.8370   63.6590 C.3     0  <0>0        0.0017
     17  C6        10.8500   32.0630   62.8500 C.3     0  <0>0        0.0017
     18  N2         7.0750   34.6680   59.0440 N.pl3   0  <0>0       -0.0961
     19  S1         6.6720   35.3720   57.6000 S.O2    0  <0>0        0.0985
     20  O2         7.2900   36.6520   57.5860 O.2     0  <0>0       -0.1478
     21  O3         6.9130   34.3990   56.5930 O.2     0  <0>0       -0.1478
     22  C15        4.9330   35.6520   57.6250 C.ar    0  <0>0        0.1565
     23  S2         3.8060   35.8480   56.2540 S.2     0  <0>0       -0.0664
     24  C18        2.3060   36.0800   57.1930 C.ar    0  <0>0        0.0368
     25  C17        2.7580   36.0000   58.4690 C.ar    0  <0>0        0.0089
     26  C16        4.1040   35.7810   58.6900 C.ar    0  <0>0        0.0274
@<TRIPOS>BOND
     1    23    24   ar
     2    23    22   ar
     3    21    19    2
     4    24    25   ar
     5    20    19    2
     6    19    22    1
     7    19    18    1
     8    22    26   ar
     9    25    26   ar
    10    18     4    1
    11     5     4   ar
    12     5     6   ar
    13     4     3   ar
    14     6     1   ar
    15     3     2   ar
    16     1     2   ar
    17     1     7    1
    18    10     9    1
    19     7     8    1
    20     9     8   am
    21     9    12    1
    22    15    17    1
    23    15    12    1
    24    15    16    1
    25     8    11    2
    26    13    12    1
    27    13    14    1
