@<TRIPOS>MOLECULE
ZINC13783700_replica-1.pdb
 24 25 0 0 0
SMALL
GASTEIGER

@<TRIPOS>ATOM
      1  C1         8.1040   38.6330   58.0910 C.3     0  <0>0        0.0025
      2  C2         7.4490   37.2510   58.0420 C.3     0  <0>0        0.0271
      3  C3         6.3060   37.1690   59.0520 C.3     0  <0>0        0.0024
      4  C4         6.8260   37.0940   60.4820 C.3     0  <0>0        0.0001
      5  C5         7.7490   35.8840   60.6420 C.3     0  <0>0        0.0003
      6  C6         8.9360   36.0040   59.6910 C.3     0  <0>0        0.0035
      7  C7         8.4430   36.1070   58.2500 C.3     0  <0>0        0.0029
      8  C8         7.7390   34.8080   57.8330 C.3     0  <0>0        0.0044
      9  C9         8.6590   33.5890   57.9590 C.3     0  <0>0        0.0220
     10  C10        9.1740   33.5500   59.3810 C.2     0  <0>0       -0.0446
     11  C11        9.0240   32.5000   60.1420 C.2     0  <0>0       -0.0091
     12  C12        9.8740   34.7970   59.8550 C.3     0  <0>0        0.0184
     13  C19        9.7890   37.2150   60.1000 C.3     0  <0>0        0.0003
     14  C13       10.3150   34.6460   61.3080 C.3     0  <0>0        0.0068
     15  C14       11.8350   34.7920   61.3970 C.3     0  <0>0        0.0315
     16  C15       12.3470   34.0440   62.6290 C.3     0  <0>0        0.1068
     17  C16       13.7970   33.6140   62.4000 C.3     0  <0>0        0.0339
     18  C17       11.4920   32.8250   62.8670 C.2     0  <0>0       -0.0001
     19  C18       12.0540   31.6730   63.1300 C.2     0  <0>0       -0.0025
     20  O1        12.2800   34.9020   63.7700 O.3     0  <0>0       -0.3827
     21  H28       13.0120   34.7910   64.3910 H       0  <0>0        0.2107
     22  C20        6.8240   37.1430   56.6330 C.3     0  <0>0        0.1370
     23  O2         7.7040   37.7330   55.6730 O.3     0  <0>0       -0.3820
     24  H34        8.6390   37.5510   55.8330 H       0  <0>0        0.2104
@<TRIPOS>BOND
     1    23    24    1
     2    23    22    1
     3    22     2    1
     4     8     9    1
     5     8     7    1
     6     9    10    1
     7     2     1    1
     8     2     7    1
     9     2     3    1
    10     7     6    1
    11     3     4    1
    12    10    12    1
    13    10    11    2
    14     6    12    1
    15     6    13    1
    16     6     5    1
    17    12    14    1
    18     4     5    1
    19    14    15    1
    20    15    16    1
    21    17    16    1
    22    16    18    1
    23    16    20    1
    24    18    19    2
    25    20    21    1
