@<TRIPOS>MOLECULE
ZINC10002126_replica-1.pdb
 29 30 0 0 0
SMALL
GASTEIGER

@<TRIPOS>ATOM
      1  C5         0.9410   33.8730   57.1730 C.3     0  <0>0        0.1505
      2  C4         0.1800   33.5480   58.4600 C.3     0  <0>0        0.0290
      3  C2         1.1470   32.9670   59.4920 C.3     0  <0>0        0.0021
      4  C1         1.0070   33.7330   60.8100 C.3     0  <0>0        0.0001
      5  C3         0.8200   31.4910   59.7250 C.3     0  <0>0        0.0001
      6  C6         0.9400   32.6680   56.2690 C.2     0  <0>0        0.2589
      7  O1         1.9670   32.0510   56.0790 O.2     0  <0>0       -0.2716
      8  N1        -0.2020   32.2740   55.6730 N.am    0  <0>0       -0.2045
      9  H11       -1.0240   32.7660   55.8260 H       0  <0>0        0.1773
     10  N2        -0.2040   31.1530   54.8330 N.2     0  <0>0       -0.1776
     11  C7        -0.5280   29.9880   55.3050 C.2     0  <0>0        0.1176
     12  C8        -0.5290   28.8090   54.4200 C.ar    0  <0>0        0.0207
     13  C13       -1.2260   28.8410   53.2090 C.ar    0  <0>0        0.0025
     14  C12       -1.2230   27.7350   52.3860 C.ar    0  <0>0        0.0114
     15  C11       -0.5340   26.5930   52.7570 C.ar    0  <0>0        0.0577
     16  C10        0.1590   26.5530   53.9560 C.ar    0  <0>0        0.0114
     17 Cl         -0.5360   25.2050   51.7150 Cl      0  <0>0       -0.0822
     18  C9         0.1690   27.6550   54.7860 C.ar    0  <0>0        0.0025
     19  N3         2.3220   34.2350   57.5020 N.am    0  <0>0       -0.2948
     20  C14        2.7550   35.4970   57.3010 C.2     0  <0>0        0.2461
     21  O2         2.0280   36.3090   56.7630 O.2     0  <0>0       -0.2701
     22  H17        2.9250   33.5680   57.8660 H       0  <0>0        0.1501
     23  C15        4.1120   35.8900   57.7330 C.ar    0  <0>0        0.0534
     24  C20        5.1190   36.0920   56.7860 C.ar    0  <0>0        0.0054
     25  C19        6.3820   36.4600   57.1950 C.ar    0  <0>0        0.0115
     26  C18        6.6550   36.6280   58.5430 C.ar    0  <0>0        0.0577
     27  C17        5.6610   36.4280   59.4870 C.ar    0  <0>0        0.0115
     28 Cl          8.2490   37.0910   59.0510 Cl      0  <0>0       -0.0822
     29  C16        4.3930   36.0610   59.0900 C.ar    0  <0>0        0.0054
@<TRIPOS>BOND
     1    17    15    1
     2    14    15   ar
     3    14    13   ar
     4    15    16   ar
     5    13    12   ar
     6    16    18   ar
     7    12    18   ar
     8    12    11    1
     9    10    11    2
    10    10     8    1
    11     8     9    1
    12     8     6   am
    13     7     6    2
    14     6     1    1
    15    21    20    2
    16    24    25   ar
    17    24    23   ar
    18     1    19    1
    19     1     2    1
    20    25    26   ar
    21    20    19   am
    22    20    23    1
    23    19    22    1
    24    23    29   ar
    25     2     3    1
    26    26    28    1
    27    26    27   ar
    28    29    27   ar
    29     3     5    1
    30     3     4    1
