@<TRIPOS>MOLECULE
ZINC37059885_replica-1.pdb
 18 18 0 0 0
SMALL
GASTEIGER

@<TRIPOS>ATOM
      1  C7        10.6710   35.0910   60.6460 C.ar    0  <0>0        0.0570
      2  C8         9.9640   34.7530   59.5000 C.ar    0  <0>0        0.0392
      3  C9         9.0770   35.6550   58.9470 C.ar    0  <0>0        0.1442
      4  C10        8.8920   36.8940   59.5330 C.ar    0  <0>0        0.0250
      5  C11        9.5950   37.2340   60.6740 C.ar    0  <0>0        0.0143
      6  C12       10.4800   36.3340   61.2370 C.ar    0  <0>0        0.0708
      7 Cl         11.3570   36.7590   62.6730 Cl      0  <0>0       -0.0810
      8  N1        11.5700   34.1800   61.2080 N.pl3   0  <0>0       -0.3319
      9  H14       12.5240   34.2930   61.0730 H       0  <0>0        0.1468
     10  C6        11.0720   33.0540   62.0010 C.3     0  <0>0        0.0870
     11  C4        12.0400   32.7710   63.1510 C.3     0  <0>0        0.0195
     12  C5        12.4840   31.3080   63.0960 C.3     0  <0>0        0.0017
     13  C3        13.2630   33.6800   63.0260 C.3     0  <0>0        0.0017
     14  C2        14.5100   32.9270   63.4910 C.3     0  <0>0        0.0001
     15  C1        15.4030   33.8690   64.3020 C.3     0  <0>0        0.0000
     16  N2         8.3220   35.2960   57.7250 N.pl3   0  <0>0        0.0577
     17  O1         7.1420   35.0470   57.7950 O.2     0  <0>0       -0.1261
     18  O2         8.8870   35.2510   56.6570 O.2     0  <0>0       -0.1261
@<TRIPOS>BOND
     1    18    16    2
     2    16    17    2
     3    16     3    1
     4     3     2   ar
     5     3     4   ar
     6     2     1   ar
     7     4     5   ar
     8     1     8    1
     9     1     6   ar
    10     5     6   ar
    11     9     8    1
    12     8    10    1
    13     6     7    1
    14    10    11    1
    15    13    11    1
    16    13    14    1
    17    12    11    1
    18    14    15    1
