@<TRIPOS>MOLECULE
ZINC36994597_replica-1.pdb
 20 21 0 0 0
SMALL
GASTEIGER

@<TRIPOS>ATOM
      1  C5        -0.3760   29.0560   55.9170 C.3     0  <0>0       -0.0378
      2  C2        -1.3970   28.5320   56.9300 C.3     0  <0>0       -0.0139
      3  C1        -2.8120   28.7600   56.3920 C.3     0  <0>0       -0.0017
      4  C3        -1.2300   29.2780   58.2550 C.3     0  <0>0       -0.0017
      5  C4        -1.1720   27.0360   57.1550 C.3     0  <0>0       -0.0017
      6  C6        -0.5170   28.2950   54.6230 C.ar    0  <0>0       -0.0420
      7  C11        0.1130   27.0750   54.4660 C.ar    0  <0>0       -0.0063
      8  C10       -0.0190   26.3770   53.2810 C.ar    0  <0>0       -0.0004
      9  C9        -0.7730   26.9040   52.2480 C.ar    0  <0>0       -0.0000
     10  C8        -1.3980   28.1270   52.4030 C.ar    0  <0>0       -0.0004
     11  C7        -1.2700   28.8230   53.5910 C.ar    0  <0>0       -0.0063
     12  N1        -0.6160   30.4840   55.6760 N.4     0  <0>0        0.3924
     13  H16       -1.1270   30.5990   54.8140 H       0  <0>0       -0.0833
     14  H22       -1.1530   30.8690   56.4380 H       0  <0>0       -0.0833
     15  C12        0.6700   31.1870   55.5800 C.3     0  <0>0       -0.0148
     16  C13        0.6630   32.3760   56.5060 C.ar    0  <0>0        0.1017
     17  O1         1.5290   33.4020   56.4730 O.2     0  <0>0       -0.4568
     18  C16        1.2200   34.2800   57.4410 C.ar    0  <0>0        0.1790
     19  C15        0.1520   33.8140   58.1120 C.ar    0  <0>0        0.0434
     20  C14       -0.2080   32.5860   57.5090 C.ar    0  <0>0        0.0340
@<TRIPOS>BOND
     1     9    10   ar
     2     9     8   ar
     3    10    11   ar
     4     8     7   ar
     5    11     6   ar
     6     7     6   ar
     7     6     1    1
     8    13    12    1
     9    15    12    1
    10    15    16    1
    11    12     1    1
    12    12    14    1
    13     1     2    1
    14     3     2    1
    15    17    16   ar
    16    17    18   ar
    17    16    20   ar
    18     2     5    1
    19     2     4    1
    20    18    19   ar
    21    20    19   ar
