@<TRIPOS>MOLECULE
ZINC14464996_replica-1.pdb
 29 33 0 0 0
SMALL
GASTEIGER

@<TRIPOS>ATOM
      1  C7         7.9640   34.8500   56.2880 C.3     0  <0>0        0.0921
      2  C8         7.3150   33.4970   56.5200 C.3     0  <0>0        0.0262
      3  C9         8.1750   32.4080   57.1760 C.3     0  <0>0        0.0023
      4  C10        7.1170   31.5750   57.9020 C.3     0  <0>0        0.0004
      5  C11        6.0580   32.3260   58.1770 C.3     0  <0>0        0.0045
      6  C12        6.3200   33.7100   57.7010 C.3     0  <0>0        0.0255
      7  C13        5.2330   34.5920   57.2250 C.ar    0  <0>0       -0.0080
      8  C14        3.9320   34.4660   57.6630 C.ar    0  <0>0        0.0168
      9  C15        2.9570   35.3370   57.2150 C.ar    0  <0>0        0.1220
     10  C16        3.2860   36.3410   56.3220 C.ar    0  <0>0        0.0211
     11  C17        4.5830   36.4710   55.8710 C.ar    0  <0>0        0.0154
     12  C18        5.5690   35.5970   56.3110 C.ar    0  <0>0        0.0408
     13  N1         6.8770   35.7400   55.8280 N.pl3   0  <0>0       -0.3308
     14  H15        7.0710   36.4360   55.1800 H       0  <0>0        0.1471
     15  S1         1.2970   35.1680   57.7810 S.O2    0  <0>0        0.0633
     16  O1         1.2840   35.5980   59.1360 O.2     0  <0>0       -0.1528
     17  O2         0.4680   35.7570   56.7880 O.2     0  <0>0       -0.1528
     18  N2         0.9450   33.5500   57.7930 N.3     0  <0>0       -0.1555
     19  C22        0.6670   32.7230   56.6030 C.3     0  <0>0        0.0958
     20  C21        1.0160   31.2780   57.0360 C.3     0  <0>0        0.0206
     21  C20        0.5360   31.2700   58.5110 C.3     0  <0>0        0.0206
     22  C19        0.8650   32.6990   58.9880 C.3     0  <0>0        0.0958
     23  C6         8.5550   35.3710   57.5730 C.ar    0  <0>0       -0.0045
     24  C1         8.2220   36.6340   58.0240 C.ar    0  <0>0       -0.0018
     25  C2         8.7590   37.1100   59.2060 C.ar    0  <0>0        0.0111
     26  C3         9.6410   36.3270   59.9290 C.ar    0  <0>0        0.0577
     27  C4         9.9780   35.0650   59.4740 C.ar    0  <0>0        0.0111
     28 Cl         10.3240   36.9270   61.4080 Cl      0  <0>0       -0.0822
     29  C5         9.4350   34.5870   58.2960 C.ar    0  <0>0       -0.0018
@<TRIPOS>BOND
     1    14    13    1
     2    13     1    1
     3    13    12    1
     4    11    12   ar
     5    11    10   ar
     6     1     2    1
     7     1    23    1
     8    12     7   ar
     9    10     9   ar
    10     2     3    1
    11     2     6    1
    12    19    20    1
    13    19    18    1
    14    17    15    2
    15    20    21    1
    16     3     4    1
    17     9     8   ar
    18     9    15    1
    19     7     8   ar
    20     7     6    1
    21    23    24   ar
    22    23    29   ar
    23     6     5    1
    24    15    18    1
    25    15    16    2
    26    18    22    1
    27     4     5    1
    28    24    25   ar
    29    29    27   ar
    30    21    22    1
    31    25    26   ar
    32    27    26   ar
    33    26    28    1
