@<TRIPOS>MOLECULE
ZINC11496388_replica-1.pdb
 28 31 0 0 0
SMALL
GASTEIGER

@<TRIPOS>ATOM
      1  C10        6.0060   35.4620   58.5400 C.2     0  <0>0        0.0914
      2  C11        6.7580   36.2330   57.6120 C.3     0  <0>0        0.1144
      3  C12        8.1360   36.7040   57.6940 C.2     0  <0>0       -0.0038
      4  C13        8.6380   37.4320   56.6690 C.2     0  <0>0        0.0331
      5  S2         7.2770   37.5290   55.5220 S.3     0  <0>0       -0.0718
      6  C14        6.0740   36.5980   56.4340 C.2     0  <0>0        0.0950
      7  N2         4.8210   36.2380   56.2270 N.2     0  <0>0       -0.2414
      8  C15        4.1740   35.5220   57.1260 C.3     0  <0>0        0.2511
      9  N3         4.7540   35.1420   58.2490 N.2     0  <0>0       -0.2417
     10  S1         6.7330   34.9340   60.0560 S.3     0  <0>0       -0.0905
     11  C8         6.5970   33.1400   59.8610 C.3     0  <0>0        0.1293
     12  C9         7.8260   32.4660   60.4720 C.3     0  <0>0        0.0218
     13  C7         5.3560   32.6520   60.5640 C.2     0  <0>0        0.2357
     14  N1         4.4690   31.8790   59.9060 N.am    0  <0>0       -0.2789
     15  C4         3.2550   31.3950   60.5770 C.3     0  <0>0        0.0934
     16  C5         4.6960   31.5070   58.5030 C.3     0  <0>0        0.0934
     17  C3         2.0370   31.7810   59.7320 C.3     0  <0>0        0.0216
     18  C2         2.2210   31.2520   58.3080 C.3     0  <0>0        0.0034
     19  C1         0.9920   31.6060   57.4690 C.3     0  <0>0        0.0001
     20  C6         3.4650   31.8870   57.6820 C.3     0  <0>0        0.0216
     21  O1         5.1550   32.9550   61.7210 O.2     0  <0>0       -0.2739
     22  C16        8.9720   36.3910   58.8780 C.ar    0  <0>0       -0.0026
     23  C21        9.7310   35.2210   58.9090 C.ar    0  <0>0        0.0020
     24  C20       10.5070   34.9350   60.0130 C.ar    0  <0>0        0.0296
     25  C19       10.5330   35.8060   61.0900 C.ar    0  <0>0        0.1401
     26  C18        9.7810   36.9700   61.0630 C.ar    0  <0>0        0.0296
     27  F1        11.2950   35.5220   62.1680 F       0  <0>0       -0.2042
     28  C17        9.0050   37.2670   59.9610 C.ar    0  <0>0        0.0020
@<TRIPOS>BOND
     1     5     6    1
     2     5     4    1
     3     7     6    2
     4     7     8    1
     5     6     2    1
     6     4     3    2
     7     8     9    1
     8    19    18    1
     9     2     3    1
    10     2     1    1
    11    20    18    1
    12    20    16    1
    13     3    22    1
    14     9     1    2
    15    18    17    1
    16    16    14    1
    17     1    10    1
    18    22    23   ar
    19    22    28   ar
    20    23    24   ar
    21    17    15    1
    22    11    10    1
    23    11    12    1
    24    11    13    1
    25    14    13   am
    26    14    15    1
    27    28    26   ar
    28    24    25   ar
    29    13    21    2
    30    26    25   ar
    31    25    27    1
