@<TRIPOS>MOLECULE
ZINC59324322_replica-1.pdb
 27 29 0 0 0
SMALL
GASTEIGER

@<TRIPOS>ATOM
      1  C10        1.1230   32.7410   56.3840 C.2     0  <0>0        0.2463
      2  O1         1.9230   31.8470   56.1850 O.2     0  <0>0       -0.2701
      3  N1        -0.1270   32.6470   55.8920 N.am    0  <0>0       -0.3005
      4  H13       -0.7650   33.3610   56.0510 H       0  <0>0        0.1498
      5  C11       -0.5240   31.4690   55.1160 C.3     0  <0>0        0.0944
      6  C12       -1.1550   30.4330   56.0480 C.3     0  <0>0        0.0491
      7  C13       -0.4700   29.1040   55.8580 C.ar    0  <0>0       -0.0021
      8  C16       -0.5230   28.2610   54.6620 C.ar    0  <0>0        0.0128
      9  C15        0.2660   27.1310   54.9490 C.ar    0  <0>0        0.0563
     10  C17       -1.1500   28.3760   53.4200 C.ar    0  <0>0       -0.0031
     11  N2         0.7470   27.2860   56.2300 N.ar    0  <0>0       -0.3523
     12  C20        0.4130   26.1400   53.9830 C.ar    0  <0>0        0.0166
     13  C14        0.2970   28.4670   56.7560 C.ar    0  <0>0        0.0681
     14  H1         1.3190   26.6520   56.6900 H       0  <0>0        0.1660
     15  C19       -0.2230   26.2690   52.7680 C.ar    0  <0>0       -0.0028
     16  C18       -0.9970   27.3870   52.4890 C.ar    0  <0>0       -0.0218
     17  C21       -1.6750   27.5110   51.1490 C.3     0  <0>0        0.0310
     18  C9         1.5220   33.9250   57.1650 C.ar    0  <0>0        0.0590
     19  C4         1.4060   33.9220   58.5640 C.ar    0  <0>0        0.0296
     20  C5         1.7920   35.0440   59.2890 C.ar    0  <0>0        0.0063
     21  C6         2.2800   36.1560   58.6330 C.ar    0  <0>0        0.0005
     22  C7         2.3900   36.1640   57.2520 C.ar    0  <0>0        0.0002
     23  C8         2.0130   35.0620   56.5160 C.ar    0  <0>0        0.0050
     24  S1         0.7820   32.5010   59.3980 S.3     0  <0>0       -0.1135
     25  C3         1.5330   32.5950   61.0470 C.3     0  <0>0        0.0622
     26  C2         0.4330   32.5760   62.1100 C.3     0  <0>0        0.0120
     27  C1        -0.3850   33.8660   62.0200 C.3     0  <0>0        0.0009
@<TRIPOS>BOND
     1    17    16    1
     2    16    15   ar
     3    16    10   ar
     4    15    12   ar
     5    10     8   ar
     6    12     9   ar
     7     8     9   ar
     8     8     7   ar
     9     9    11   ar
    10     5     3    1
    11     5     6    1
    12     7     6    1
    13     7    13   ar
    14     3     4    1
    15     3     1   am
    16     2     1    2
    17    11    14    1
    18    11    13   ar
    19     1    18    1
    20    23    18   ar
    21    23    22   ar
    22    18    19   ar
    23    22    21   ar
    24    19    20   ar
    25    19    24    1
    26    21    20   ar
    27    24    25    1
    28    25    26    1
    29    27    26    1
