@<TRIPOS>MOLECULE
ZINC63055991_replica-1.pdb
 21 22 0 0 0
SMALL
GASTEIGER

@<TRIPOS>ATOM
      1  C4        -0.6060   29.4300   55.1230 C.3     0  <0>0        0.0206
      2  N1         0.7220   30.0470   55.2440 N.4     0  <0>0        0.3922
      3  H9         1.2390   29.9010   54.3900 H       0  <0>0       -0.0833
      4  H21        1.2200   29.6260   56.0140 H       0  <0>0       -0.0833
      5  C3         0.5730   31.4880   55.4850 C.3     0  <0>0       -0.0806
      6  C2         1.4290   31.8960   56.6850 C.3     0  <0>0       -0.0233
      7  C1         0.5230   32.3920   57.8140 C.3     0  <0>0       -0.0023
      8  C5        -0.5240   28.2380   54.2050 C.ar    0  <0>0       -0.0352
      9  C10       -1.1860   28.2540   52.9910 C.ar    0  <0>0       -0.0079
     10  C9        -1.1080   27.1630   52.1460 C.ar    0  <0>0        0.0052
     11  C8        -0.3760   26.0490   52.5210 C.ar    0  <0>0        0.1361
     12  C11       -1.8240   27.1840   50.8200 C.3     0  <0>0        0.0334
     13  C7         0.2820   26.0330   53.7390 C.ar    0  <0>0        0.0289
     14  F1        -0.3020   24.9800   51.6970 F       0  <0>0       -0.2045
     15  C6         0.2070   27.1260   54.5790 C.ar    0  <0>0       -0.0036
     16  C12       -1.0780   28.9860   56.4830 C.ar    0  <0>0        0.1066
     17  O1        -0.3510   29.0050   57.6120 O.2     0  <0>0       -0.4638
     18  C15       -1.0930   28.5410   58.6300 C.ar    0  <0>0        0.1227
     19  C14       -2.3080   28.2110   58.1550 C.ar    0  <0>0        0.0357
     20  C16       -0.6410   28.4080   60.0610 C.3     0  <0>0        0.0725
     21  C13       -2.2980   28.4970   56.7710 C.ar    0  <0>0        0.0339
@<TRIPOS>BOND
     1    12    10    1
     2    14    11    1
     3    10    11   ar
     4    10     9   ar
     5    11    13   ar
     6     9     8   ar
     7    13    15   ar
     8     8    15   ar
     9     8     1    1
    10     3     2    1
    11     1     2    1
    12     1    16    1
    13     2     5    1
    14     2     4    1
    15     5     6    1
    16    16    21   ar
    17    16    17   ar
    18     6     7    1
    19    21    19   ar
    20    17    18   ar
    21    19    18   ar
    22    18    20    1
