@<TRIPOS>MOLECULE
ZINC36922685_replica-1.pdb
 21 23 0 0 0
SMALL
GASTEIGER

@<TRIPOS>ATOM
      1  C7        -0.0890   28.8890   54.7630 C.ar    0  <0>0        0.0570
      2  C8        -0.0480   27.5880   54.2180 C.ar    0  <0>0        0.0313
      3  C9         0.6540   26.5510   54.8540 C.ar    0  <0>0        0.0043
      4  C10        0.6500   25.3150   54.2700 C.ar    0  <0>0        0.0207
      5  C11       -0.0400   25.1140   53.0760 C.ar    0  <0>0        0.0988
      6  N2        -0.6940   26.0840   52.4850 N.ar    0  <0>0       -0.2441
      7  C12       -0.7300   27.3160   53.0060 C.ar    0  <0>0        0.0786
      8  C13       -1.4340   28.3510   52.3670 C.ar    0  <0>0       -0.0033
      9  C14       -1.4560   29.5990   52.9130 C.ar    0  <0>0        0.0099
     10  C15       -0.7970   29.8750   54.1060 C.ar    0  <0>0        0.0705
     11 Cl         -0.8570   31.4770   54.7710 Cl      0  <0>0       -0.0810
     12  C16       -2.1630   28.0810   51.0770 C.3     0  <0>0        0.0326
     13  N1         0.5750   29.1730   55.9530 N.pl3   0  <0>0       -0.3280
     14  H8         1.5450   29.1520   55.9850 H       0  <0>0        0.1472
     15  C6        -0.1900   29.5050   57.1580 C.3     0  <0>0        0.1205
     16  C5        -0.8520   28.2600   57.6910 C.ar    0  <0>0        0.0230
     17  C2        -2.1220   27.8260   57.5100 C.ar    0  <0>0       -0.0177
     18  C1        -3.0930   28.6230   56.6780 C.3     0  <0>0        0.0313
     19  C3        -2.5140   26.6360   58.0960 C.ar    0  <0>0        0.0029
     20  C4        -1.6160   25.9430   58.8380 C.ar    0  <0>0        0.0348
     21  S1        -0.1660   26.9760   58.7250 S.2     0  <0>0       -0.0894
@<TRIPOS>BOND
     1    12     8    1
     2     8     9   ar
     3     8     7   ar
     4     6     7   ar
     5     6     5   ar
     6     9    10   ar
     7     7     2   ar
     8     5     4   ar
     9    10     1   ar
    10    10    11    1
    11     2     1   ar
    12     2     3   ar
    13     4     3   ar
    14     1    13    1
    15    13    14    1
    16    13    15    1
    17    18    17    1
    18    15    16    1
    19    17    16   ar
    20    17    19   ar
    21    16    21   ar
    22    19    20   ar
    23    21    20   ar
