@<TRIPOS>MOLECULE
ZINC31943964_replica-1.pdb
 19 21 0 0 0
SMALL
GASTEIGER

@<TRIPOS>ATOM
      1  C7        11.2900   34.6970   61.2560 C.2     0  <0>0        0.1860
      2  N1        10.7780   35.9020   61.6590 N.pl3   0  <0>0       -0.2862
      3  H1        11.0660   36.3230   62.6330 H       0  <0>0        0.1546
      4  C8         9.9420   36.3480   60.6520 C.2     0  <0>0        0.0774
      5  C9         9.1560   37.4790   60.4860 C.2     0  <0>0        0.0123
      6  C10        8.4150   37.6370   59.3330 C.3     0  <0>0        0.1358
      7  C11        8.4490   36.6680   58.3360 C.2     0  <0>0        0.0570
      8  C12        9.2220   35.5390   58.4840 C.2     0  <0>0        0.0420
      9  C13        9.9810   35.3650   59.6470 C.2     0  <0>0        0.1467
     10  N2        10.8130   34.3840   60.0750 N.2     0  <0>0       -0.3856
     11 Cl          7.5080   36.8850   56.8930 Cl      0  <0>0       -0.0852
     12 Cl          7.4330   39.0530   59.1260 Cl      0  <0>0       -0.1044
     13  C5        12.2330   33.8700   62.0380 C.ar    0  <0>0        0.0714
     14  C4        11.7890   32.7060   62.6710 C.ar    0  <0>0        0.1438
     15  C3        12.6780   31.9360   63.3960 C.ar    0  <0>0        0.0298
     16  F1        10.4950   32.3320   62.5690 F       0  <0>0       -0.2040
     17  C2        14.0020   32.3210   63.5060 C.ar    0  <0>0        0.0023
     18  C1        14.4460   33.4760   62.8860 C.ar    0  <0>0        0.0003
     19  C6        13.5710   34.2520   62.1540 C.ar    0  <0>0        0.0061
@<TRIPOS>BOND
     1    11     7    1
     2     7     8    2
     3     7     6    1
     4     8     9    1
     5    12     6    1
     6     6     5    1
     7     9    10    2
     8     9     4    1
     9    10     1    2
    10     5     4    2
    11     4     2    1
    12     1     2    1
    13     1    13    1
    14     2     3    1
    15    13    19   ar
    16    13    14   ar
    17    19    18   ar
    18    16    14    1
    19    14    15   ar
    20    18    17   ar
    21    15    17   ar
