@<TRIPOS>MOLECULE
ZINC25496215_replica-1.pdb
 29 30 0 0 0
SMALL
GASTEIGER

@<TRIPOS>ATOM
      1  N2         7.6580   36.8110   57.5190 N.pl3   0  <0>0       -0.3270
      2  H15        7.3780   37.8670   57.3910 H       0  <0>0        0.1472
      3  C10        7.0740   35.7880   56.6490 C.3     0  <0>0        0.1472
      4  C11        7.4640   36.0690   55.1960 C.3     0  <0>0        0.0311
      5  C9         5.5730   35.8140   56.7800 C.2     0  <0>0        0.2471
      6  N1         4.9510   34.9300   57.5870 N.am    0  <0>0       -0.2573
      7  O1         4.9240   36.6290   56.1600 O.2     0  <0>0       -0.2728
      8  C2         5.7400   33.9960   58.3950 C.3     0  <0>0        0.0983
      9  C1         5.7730   34.4790   59.8460 C.3     0  <0>0        0.0237
     10  C3         3.5540   34.9070   57.6530 C.ar    0  <0>0        0.0539
     11  C8         2.8790   35.8160   58.4560 C.ar    0  <0>0        0.0149
     12  C7         1.5000   35.7910   58.5180 C.ar    0  <0>0        0.0013
     13  C6         0.7910   34.8590   57.7830 C.ar    0  <0>0        0.0001
     14  C5         1.4600   33.9510   56.9820 C.ar    0  <0>0        0.0013
     15  C4         2.8390   33.9760   56.9110 C.ar    0  <0>0        0.0149
     16  C12        8.5710   36.4450   58.5140 C.ar    0  <0>0        0.0450
     17  C17        9.3150   35.2800   58.3780 C.ar    0  <0>0        0.0156
     18  C16       10.2160   34.9190   59.3600 C.ar    0  <0>0        0.0159
     19  C15       10.3780   35.7190   60.4830 C.ar    0  <0>0        0.0504
     20  C14        9.6340   36.8830   60.6190 C.ar    0  <0>0        0.0159
     21  C13        8.7380   37.2490   59.6340 C.ar    0  <0>0        0.0156
     22  N3        11.2930   35.3520   61.4790 N.am    0  <0>0       -0.2839
     23  C18       11.2680   34.1040   61.9890 C.2     0  <0>0        0.2261
     24  O2        10.5120   33.2750   61.5290 O.2     0  <0>0       -0.2748
     25  H20       12.0290   36.0810   61.8450 H       0  <0>0        0.1549
     26  C19       12.1840   33.7370   63.1280 C.3     0  <0>0        0.0854
     27  C20       13.2620   32.7740   62.6270 C.3     0  <0>0        0.0091
     28  C21       14.6430   33.3120   63.0080 C.3     0  <0>0        0.0005
     29  C22       13.0550   31.4000   63.2690 C.3     0  <0>0        0.0005
@<TRIPOS>BOND
     1     4     3    1
     2     7     5    2
     3     3     5    1
     4     3     1    1
     5     5     6   am
     6    15    14   ar
     7    15    10   ar
     8    14    13   ar
     9     2     1    1
    10     1    16    1
    11     6    10    1
    12     6     8    1
    13    10    11   ar
    14    13    12   ar
    15    17    16   ar
    16    17    18   ar
    17     8     9    1
    18    11    12   ar
    19    16    21   ar
    20    18    19   ar
    21    21    20   ar
    22    19    20   ar
    23    19    22    1
    24    22    25    1
    25    22    23   am
    26    24    23    2
    27    23    26    1
    28    27    28    1
    29    27    26    1
    30    27    29    1
