@<TRIPOS>MOLECULE
ZINC36924837_replica-1.pdb
 19 20 0 0 0
SMALL
GASTEIGER

@<TRIPOS>ATOM
      1  C7        12.1870   33.7340   61.9200 C.3     0  <0>0        0.1696
      2  C8        11.3840   32.6920   62.5800 C.1     0  <0>0        0.0930
      3  N1        10.7640   31.8890   63.0900 N.1     0  <0>0       -0.1941
      4  C6        11.2720   34.7820   61.3400 C.ar    0  <0>0        0.0064
      5  C1        10.6420   34.5540   60.1300 C.ar    0  <0>0       -0.0014
      6  C2         9.8030   35.5120   59.5960 C.ar    0  <0>0        0.0062
      7  C3         9.5920   36.7050   60.2750 C.ar    0  <0>0        0.0327
      8  C4        10.2270   36.9300   61.4910 C.ar    0  <0>0        0.0062
      9  C5        11.0640   35.9680   62.0200 C.ar    0  <0>0       -0.0014
     10  S1         8.5220   37.9310   59.5980 S.3     0  <0>0       -0.0144
     11  C12        6.8590   37.2600   59.8670 C.3     0  <0>0        0.4477
     12  F1         6.8520   36.4820   61.0300 F       0  <0>0       -0.1600
     13  F2         5.9480   38.3130   60.0050 F       0  <0>0       -0.1600
     14  F3         6.4930   36.4680   58.7740 F       0  <0>0       -0.1600
     15  N2        13.0840   34.3560   62.9020 N.3     0  <0>0       -0.2842
     16  H6        13.1690   35.3490   62.7370 H       0  <0>0        0.1244
     17  C9        14.4030   33.7090   62.8970 C.3     0  <0>0        0.0551
     18  C11       15.2410   33.8010   64.1730 C.3     0  <0>0        0.0171
     19  C10       14.5870   32.4750   63.7820 C.3     0  <0>0        0.0171
@<TRIPOS>BOND
     1    14    11    1
     2     6     5   ar
     3     6     7   ar
     4    10    11    1
     5    10     7    1
     6    11    13    1
     7    11    12    1
     8     5     4   ar
     9     7     8   ar
    10     4     1    1
    11     4     9   ar
    12     8     9   ar
    13     1     2    1
    14     1    15    1
    15     2     3    3
    16    16    15    1
    17    17    15    1
    18    17    19    1
    19    17    18    1
    20    19    18    1
