@<TRIPOS>MOLECULE
ZINC21227151_replica-1.pdb
 29 32 0 0 0
SMALL
GASTEIGER

@<TRIPOS>ATOM
      1  C9         0.2200   29.9890   55.6920 C.3     0  <0>0        0.0356
      2  C10       -0.1720   31.4400   55.4080 C.3     0  <0>0        0.0458
      3  C11        0.2320   32.3100   56.5720 C.2     0  <0>0        0.0268
      4  C12        0.2570   31.8170   57.8290 C.2     0  <0>0        0.0261
      5  C13        0.6590   32.7080   58.9800 C.3     0  <0>0        0.0573
      6  C14        0.1680   34.1320   58.7150 C.3     0  <0>0        0.0942
      7  C15        0.5500   34.5340   57.3140 C.2     0  <0>0        0.2265
      8  O1         0.8350   35.6870   57.0720 O.2     0  <0>0       -0.2748
      9  N1         0.5750   33.6170   56.3320 N.am    0  <0>0       -0.2875
     10  C23       -0.0800   30.4790   58.0950 C.2     0  <0>0        0.1706
     11  O3        -0.0600   30.0750   59.2410 O.2     0  <0>0       -0.2916
     12  C24       -0.4670   29.5400   56.9840 C.3     0  <0>0        0.0736
     13  H16        0.8760   33.9290   55.3210 H       0  <0>0        0.1545
     14  C6        -0.2270   29.1120   54.5500 C.ar    0  <0>0       -0.0217
     15  C5         0.3070   27.8450   54.4020 C.ar    0  <0>0       -0.0046
     16  C4        -0.1050   27.0390   53.3570 C.ar    0  <0>0       -0.0046
     17  C3        -1.0450   27.5030   52.4560 C.ar    0  <0>0       -0.0222
     18  C8        -1.5800   28.7690   52.6040 C.ar    0  <0>0       -0.0046
     19  C7        -1.1700   29.5740   53.6510 C.ar    0  <0>0       -0.0046
     20  C2        -1.4920   26.6260   51.3140 C.3     0  <0>0        0.0264
     21  C1        -0.9050   25.2240   51.4890 C.3     0  <0>0        0.0050
     22  C16        2.1600   32.7110   59.1130 C.ar    0  <0>0       -0.0176
     23  C21        2.7750   33.5910   59.9850 C.ar    0  <0>0       -0.0008
     24  C20        4.1500   33.5950   60.1090 C.ar    0  <0>0        0.0366
     25  C19        4.9160   32.7170   59.3570 C.ar    0  <0>0        0.1387
     26  C18        4.2970   31.8350   58.4820 C.ar    0  <0>0        0.0366
     27  C17        2.9210   31.8300   58.3660 C.ar    0  <0>0       -0.0008
     28  O2         6.2700   32.7190   59.4760 O.3     0  <0>0       -0.4714
     29  C22        6.8530   33.7810   60.2320 C.3     0  <0>0        0.2525
@<TRIPOS>BOND
     1    20    21    1
     2    20    17    1
     3    17    18   ar
     4    17    16   ar
     5    18    19   ar
     6    16    15   ar
     7    19    14   ar
     8    15    14   ar
     9    14     1    1
    10    13     9    1
    11     2     1    1
    12     2     3    1
    13     1    12    1
    14     9     3    1
    15     9     7   am
    16     3     4    2
    17    12    10    1
    18     8     7    2
    19     7     6    1
    20     4    10    1
    21     4     5    1
    22    10    11    2
    23    27    26   ar
    24    27    22   ar
    25    26    25   ar
    26     6     5    1
    27     5    22    1
    28    22    23   ar
    29    25    28    1
    30    25    24   ar
    31    28    29    1
    32    23    24   ar
