@<TRIPOS>MOLECULE
ZINC50593984_replica-1.pdb
 18 19 0 0 0
SMALL
GASTEIGER

@<TRIPOS>ATOM
      1  C1        -0.0370   26.4680   52.7450 C.3     0  <0>0        0.0269
      2  C2        -0.6240   27.6680   53.4400 C.2     0  <0>0       -0.0326
      3  C3        -1.5540   28.4760   52.7990 C.2     0  <0>0        0.0196
      4  C4        -2.0730   29.5690   53.4650 C.2     0  <0>0        0.1103
      5  N1        -1.6940   29.8520   54.6970 N.2     0  <0>0       -0.3911
      6  C5        -0.8100   29.1080   55.3410 C.2     0  <0>0        0.1951
      7  C6        -0.2530   27.9890   54.7340 C.3     0  <0>0        0.1058
      8  C13       -3.0820   30.4490   52.7750 C.3     0  <0>0        0.0664
      9  N2        -0.4400   29.4450   56.6450 N.ar    0  <0>0       -0.2092
     10  N3         0.6390   30.2600   57.0120 N.ar    0  <0>0       -0.1674
     11  C10        0.6620   30.3470   58.3180 C.ar    0  <0>0        0.0867
     12  C9        -0.3940   29.5840   58.8300 C.ar    0  <0>0        0.0634
     13  C11        1.6600   31.1300   59.1320 C.3     0  <0>0        0.0545
     14  C8        -1.0590   29.0380   57.7850 C.ar    0  <0>0        0.0705
     15 Br         -0.8170   29.3560   60.6580 Br      0  <0>0       -0.0465
     16  C12       -2.2670   28.1410   57.8690 C.3     0  <0>0        0.0528
     17  C7         0.7490   27.1390   55.4740 C.3     0  <0>0        0.1076
     18 Cl         -0.1170   25.8400   56.3760 Cl      0  <0>0       -0.1129
@<TRIPOS>BOND
     1     1     2    1
     2     8     4    1
     3     3     2    2
     4     3     4    1
     5     2     7    1
     6     4     5    2
     7     5     6    2
     8     7     6    1
     9     7    17    1
    10     6     9    1
    11    17    18    1
    12     9    10   ar
    13     9    14   ar
    14    10    11   ar
    15    14    16    1
    16    14    12   ar
    17    11    12   ar
    18    11    13    1
    19    12    15    1
