@<TRIPOS>MOLECULE
ZINC27922718_replica-1.pdb
 28 31 0 0 0
SMALL
GASTEIGER

@<TRIPOS>ATOM
      1  C7         0.8040   31.0720   58.0970 C.ar    0  <0>0        0.0793
      2  C8         0.1040   30.2700   59.0100 C.ar    0  <0>0        0.0935
      3  N2        -0.8090   29.6000   58.3540 N.ar    0  <0>0       -0.1724
      4  N3        -0.7240   29.9480   57.0010 N.ar    0  <0>0       -0.2495
      5  C9         0.2770   30.8570   56.8650 C.ar    0  <0>0        0.0709
      6  C10        0.7200   31.5090   55.5810 C.3     0  <0>0        0.0531
      7  C22        0.3570   30.1930   60.4940 C.3     0  <0>0        0.0553
      8  C11       -1.5670   29.4270   55.9210 C.3     0  <0>0        0.1534
      9  C12       -0.8830   28.2520   55.2730 C.ar    0  <0>0        0.0021
     10  C17       -1.0390   28.0150   53.8970 C.ar    0  <0>0       -0.0021
     11  C16       -0.3880   26.9020   53.3050 C.ar    0  <0>0       -0.0002
     12  C18       -1.8280   28.8580   53.0950 C.ar    0  <0>0       -0.0003
     13  C15        0.4000   26.0590   54.1060 C.ar    0  <0>0       -0.0000
     14  C21       -0.5430   26.6660   51.9290 C.ar    0  <0>0       -0.0000
     15  C14        0.5280   26.3200   55.4370 C.ar    0  <0>0       -0.0003
     16  C13       -0.1070   27.4170   56.0160 C.ar    0  <0>0       -0.0023
     17  C20       -1.3150   27.5040   51.1840 C.ar    0  <0>0       -0.0000
     18  C19       -1.9550   28.5970   51.7650 C.ar    0  <0>0       -0.0000
     19  N1         1.8610   31.9470   58.4060 N.am    0  <0>0       -0.2781
     20  C6         1.6050   33.2370   58.7000 C.2     0  <0>0        0.2553
     21  O1         0.4540   33.6210   58.8010 O.2     0  <0>0       -0.2693
     22  H6         2.8980   31.5790   58.4060 H       0  <0>0        0.1553
     23  C5         2.7110   34.1780   58.9000 C.ar    0  <0>0        0.0791
     24  C2         2.9550   35.3870   58.2670 C.ar    0  <0>0       -0.0109
     25  C1         2.0260   35.9220   57.2080 C.3     0  <0>0        0.0317
     26  C3         4.0760   36.0790   58.6520 C.ar    0  <0>0        0.0034
     27  C4         4.8860   35.5510   59.6060 C.ar    0  <0>0        0.0353
     28  S1         4.1000   34.0610   60.0130 S.2     0  <0>0       -0.0822
@<TRIPOS>BOND
     1    17    18   ar
     2    17    14   ar
     3    18    12   ar
     4    14    11   ar
     5    12    10   ar
     6    11    10   ar
     7    11    13   ar
     8    10     9   ar
     9    13    15   ar
    10     9     8    1
    11     9    16   ar
    12    15    16   ar
    13     6     5    1
    14     8     4    1
    15     5     4   ar
    16     5     1   ar
    17     4     3   ar
    18    25    24    1
    19     1    19    1
    20     1     2   ar
    21    24    26   ar
    22    24    23   ar
    23     3     2   ar
    24    19    22    1
    25    19    20   am
    26    26    27   ar
    27    20    21    2
    28    20    23    1
    29    23    28   ar
    30     2     7    1
    31    27    28   ar
