@<TRIPOS>MOLECULE
ZINC49154795_replica-1.pdb
 21 21 0 0 0
SMALL
GASTEIGER

@<TRIPOS>ATOM
      1  C5        11.3070   35.1160   61.5610 C.ar    0  <0>0        0.1220
      2  C6        10.8530   36.3850   61.8680 C.ar    0  <0>0        0.0204
      3  C7         9.9180   37.0000   61.0570 C.ar    0  <0>0        0.0078
      4  C8         9.4360   36.3410   59.9320 C.ar    0  <0>0        0.0328
      5  C9         9.8960   35.0660   59.6280 C.ar    0  <0>0        0.0078
      6  C10       10.8340   34.4600   60.4390 C.ar    0  <0>0        0.0204
      7  S1        12.4980   34.3350   62.5980 S.O2    0  <0>0        0.0603
      8  O2        12.5350   35.0810   63.8070 O.2     0  <0>0       -0.1530
      9  O3        13.6550   34.1230   61.8000 O.2     0  <0>0       -0.1530
     10  N1        11.9080   32.8380   62.9830 N.3     0  <0>0       -0.1768
     11  H10       11.0110   32.7470   63.3430 H       0  <0>0        0.1489
     12  C4        12.7380   31.6490   62.7800 C.3     0  <0>0        0.1234
     13  C3        13.5960   31.4070   64.0240 C.3     0  <0>0        0.1609
     14  O1        14.7980   32.1740   63.9300 O.3     0  <0>0       -0.3522
     15  C2        15.1560   32.8460   65.1400 C.3     0  <0>0        0.1423
     16  C1        16.0910   34.0130   64.8180 C.3     0  <0>0        0.0346
     17  S2         8.2440   37.1220   58.8950 S.3     0  <0>0       -0.0144
     18  C11        6.6700   36.8530   59.7560 C.3     0  <0>0        0.4477
     19  F1         6.0660   38.0870   60.0200 F       0  <0>0       -0.1600
     20  F2         5.8250   36.0820   58.9510 F       0  <0>0       -0.1600
     21  F3         6.9070   36.1820   60.9600 F       0  <0>0       -0.1600
@<TRIPOS>BOND
     1    17    18    1
     2    17     4    1
     3    20    18    1
     4     5     4   ar
     5     5     6   ar
     6    18    19    1
     7    18    21    1
     8     4     3   ar
     9     6     1   ar
    10     3     2   ar
    11     1     2   ar
    12     1     7    1
    13     9     7    2
    14     7    10    1
    15     7     8    2
    16    12    10    1
    17    12    13    1
    18    10    11    1
    19    14    13    1
    20    14    15    1
    21    16    15    1
