@<TRIPOS>MOLECULE
ZINC07457496_replica-1.pdb
 24 26 0 0 0
SMALL
GASTEIGER

@<TRIPOS>ATOM
      1  C3         0.1050   27.4090   56.0020 C.2     0  <0>0        0.2398
      2  O1        -0.0100   26.2030   56.0610 O.2     0  <0>0       -0.2736
      3  N1        -0.0790   28.0460   54.8280 N.am    0  <0>0       -0.2478
      4  C4         0.0620   29.5070   54.7280 C.3     0  <0>0        0.1835
      5  C5        -1.0460   30.0470   53.8610 C.2     0  <0>0        0.2468
      6  O2        -1.4550   31.1740   54.0460 O.2     0  <0>0       -0.2729
      7  N2        -1.5870   29.2960   52.8840 N.am    0  <0>0       -0.2815
      8  C6        -1.1690   27.9760   52.6820 C.ar    0  <0>0        0.0642
      9  C7        -0.4030   27.3370   53.6620 C.ar    0  <0>0        0.0678
     10  C8         0.0170   26.0320   53.4800 C.ar    0  <0>0        0.0162
     11  C9        -0.3150   25.3600   52.3160 C.ar    0  <0>0        0.0014
     12  C10       -1.0660   25.9890   51.3400 C.ar    0  <0>0        0.0014
     13  C11       -1.5000   27.2970   51.5210 C.ar    0  <0>0        0.0159
     14  H7        -2.2750   29.6730   52.3130 H       0  <0>0        0.1549
     15  C2         0.4530   28.1950   57.2390 C.3     0  <0>0        0.1286
     16  C1         1.4690   27.4120   58.0730 C.3     0  <0>0        0.0218
     17  S1        -1.0480   28.4740   58.2210 S.3     0  <0>0       -0.1044
     18  C12       -0.5240   29.5670   59.4990 C.ar    0  <0>0        0.0362
     19  C17       -0.9270   29.3480   60.8120 C.ar    0  <0>0        0.0633
     20  C16       -0.5100   30.2040   61.8120 C.ar    0  <0>0        0.0119
     21 Cl         -1.9480   27.9960   61.1940 Cl      0  <0>0       -0.0817
     22  C15        0.2980   31.2840   61.5070 C.ar    0  <0>0        0.0009
     23  C14        0.6960   31.5090   60.2020 C.ar    0  <0>0        0.0006
     24  C13        0.2880   30.6530   59.1970 C.ar    0  <0>0        0.0070
@<TRIPOS>BOND
     1    12    13   ar
     2    12    11   ar
     3    13     8   ar
     4    14     7    1
     5    11    10   ar
     6     8     7    1
     7     8     9   ar
     8     7     5   am
     9    10     9   ar
    10     9     3    1
    11     5     6    2
    12     5     4    1
    13     4     3    1
    14     3     1   am
    15     1     2    2
    16     1    15    1
    17    15    16    1
    18    15    17    1
    19    17    18    1
    20    24    18   ar
    21    24    23   ar
    22    18    19   ar
    23    23    22   ar
    24    19    21    1
    25    19    20   ar
    26    22    20   ar
