@<TRIPOS>MOLECULE
ZINC35400530_replica-1.pdb
 31 35 0 0 0
SMALL
GASTEIGER

@<TRIPOS>ATOM
      1  N1         0.4860   30.0720   58.3440 N.pl3   0  <0>0       -0.2928
      2  C9         0.0210   29.5770   59.5460 C.ar    0  <0>0        0.0499
      3  C10        0.5220   29.6350   60.8440 C.ar    0  <0>0        0.0169
      4  C11       -0.1660   29.0380   61.8760 C.ar    0  <0>0        0.0309
      5  C12       -1.3640   28.3740   61.6360 C.ar    0  <0>0        0.1403
      6  C13       -1.8780   28.3050   60.3590 C.ar    0  <0>0        0.0321
      7  C14       -1.1890   28.9050   59.3040 C.ar    0  <0>0        0.0309
      8  C15       -1.4480   29.0170   57.8620 C.2     0  <0>0        0.0838
      9  C16       -0.3890   29.7480   57.3260 C.3     0  <0>0        0.1906
     10  C17       -0.3920   30.0080   55.9360 C.2     0  <0>0        0.2512
     11  O1         0.5140   30.6400   55.4180 O.2     0  <0>0       -0.2726
     12  N2        -1.4210   29.5400   55.1960 N.am    0  <0>0       -0.2529
     13  C18       -2.4240   28.8380   55.7790 C.3     0  <0>0        0.2219
     14  N3        -2.4330   28.5810   57.0570 N.2     0  <0>0       -0.2501
     15  F1        -2.0270   27.7940   62.6610 F       0  <0>0       -0.2042
     16  C8         1.7250   30.8350   58.1750 C.3     0  <0>0        0.1180
     17  C7         1.5080   32.2530   58.6400 C.ar    0  <0>0       -0.0063
     18  C2         2.2650   32.7630   59.6780 C.ar    0  <0>0       -0.0242
     19  C1         3.3060   31.9010   60.3450 C.3     0  <0>0        0.0308
     20  C3         2.0710   34.0640   60.1000 C.ar    0  <0>0       -0.0045
     21  C4         1.1160   34.8540   59.4880 C.ar    0  <0>0       -0.0003
     22  C5         0.3550   34.3430   58.4530 C.ar    0  <0>0       -0.0003
     23  C6         0.5500   33.0410   58.0310 C.ar    0  <0>0       -0.0029
     24  C19       -1.4530   29.7940   53.7530 C.3     0  <0>0        0.1229
     25  C20       -1.2500   28.4970   53.0120 C.ar    0  <0>0        0.0083
     26  C25       -1.9450   28.2530   51.8410 C.ar    0  <0>0        0.0553
     27  C24       -1.7530   27.0650   51.1580 C.ar    0  <0>0        0.0111
     28 Cl         -3.0540   29.4390   51.2260 Cl      0  <0>0       -0.0825
     29  C23       -0.8750   26.1190   51.6500 C.ar    0  <0>0        0.0008
     30  C22       -0.1840   26.3620   52.8240 C.ar    0  <0>0       -0.0002
     31  C21       -0.3720   27.5500   53.5040 C.ar    0  <0>0       -0.0018
@<TRIPOS>BOND
     1    27    29   ar
     2    27    26   ar
     3    28    26    1
     4    29    30   ar
     5    26    25   ar
     6    30    31   ar
     7    25    31   ar
     8    25    24    1
     9    24    12    1
    10    12    13    1
    11    12    10   am
    12    11    10    2
    13    13    14    1
    14    10     9    1
    15    14     8    2
    16     9     8    1
    17     9     1    1
    18     8     7    1
    19    23    22   ar
    20    23    17   ar
    21    16     1    1
    22    16    17    1
    23     1     2    1
    24    22    21   ar
    25    17    18   ar
    26     7     2   ar
    27     7     6   ar
    28    21    20   ar
    29     2     3   ar
    30    18    20   ar
    31    18    19    1
    32     6     5   ar
    33     3     4   ar
    34     5     4   ar
    35     5    15    1
