@<TRIPOS>MOLECULE
ZINC40845788_replica-1.pdb
 26 27 0 0 0
SMALL
GASTEIGER

@<TRIPOS>ATOM
      1  C10        1.4170   33.4910   56.6300 C.2     0  <0>0        0.2813
      2  O2         2.4510   33.1180   56.1170 O.2     0  <0>0       -0.2695
      3  N1         0.2510   32.8980   56.3050 N.am    0  <0>0       -0.2029
      4  H11       -0.5760   33.1960   56.7150 H       0  <0>0        0.1774
      5  C8         1.4350   34.6170   57.6310 C.3     0  <0>0        0.2428
      6  C9         1.8980   35.9030   56.9440 C.3     0  <0>0        0.0575
      7  O1         2.3350   34.2950   58.6940 O.3     0  <0>0       -0.4699
      8  C6         1.8690   33.4720   59.6690 C.ar    0  <0>0        0.1385
      9  C5         2.2900   32.1510   59.7260 C.ar    0  <0>0        0.0326
     10  C4         1.8150   31.3180   60.7200 C.ar    0  <0>0       -0.0192
     11  C3         0.9200   31.7990   61.6570 C.ar    0  <0>0       -0.0083
     12  C21        2.2720   29.8830   60.7820 C.3     0  <0>0        0.0311
     13  C2         0.4980   33.1150   61.6040 C.ar    0  <0>0       -0.0192
     14  C1        -0.4780   33.6350   62.6270 C.3     0  <0>0        0.0311
     15  C7         0.9660   33.9510   60.6080 C.ar    0  <0>0        0.0326
     16  N2         0.2330   31.8500   55.3740 N.2     0  <0>0       -0.1775
     17  C11       -0.5480   30.8310   55.5590 C.2     0  <0>0        0.1176
     18  C12       -0.5670   29.7300   54.5790 C.ar    0  <0>0        0.0207
     19  C17       -1.4920   29.7380   53.5320 C.ar    0  <0>0        0.0013
     20  C16       -1.5010   28.7070   52.6160 C.ar    0  <0>0       -0.0042
     21  C15       -0.6050   27.6600   52.7390 C.ar    0  <0>0       -0.0225
     22  C14        0.3100   27.6430   53.7770 C.ar    0  <0>0       -0.0042
     23  C13        0.3350   28.6700   54.6970 C.ar    0  <0>0        0.0013
     24  C18       -0.6240   26.5350   51.7370 C.3     0  <0>0        0.0224
     25  C19       -0.5110   25.1960   52.4710 C.3     0  <0>0        0.0047
     26  C20       -1.9360   26.5750   50.9500 C.3     0  <0>0        0.0047
@<TRIPOS>BOND
     1    26    24    1
     2    24    25    1
     3    24    21    1
     4    20    21   ar
     5    20    19   ar
     6    21    22   ar
     7    19    18   ar
     8    22    23   ar
     9    18    23   ar
    10    18    17    1
    11    16    17    2
    12    16     3    1
    13     2     1    2
    14     3     1   am
    15     3     4    1
    16     1     5    1
    17     6     5    1
    18     5     7    1
    19     7     8    1
    20     8     9   ar
    21     8    15   ar
    22     9    10   ar
    23    15    13   ar
    24    10    12    1
    25    10    11   ar
    26    13    11   ar
    27    13    14    1
