@<TRIPOS>MOLECULE
ZINC08024942_replica-1.pdb
 26 29 0 0 0
SMALL
GASTEIGER

@<TRIPOS>ATOM
      1  C1         1.4180   31.8890   55.9450 C.3     0  <0>0        0.0491
      2  C2         1.0470   31.4780   57.3460 C.2     0  <0>0        0.0597
      3  C3         0.0210   30.7290   57.6520 C.3     0  <0>0        0.0909
      4  C4        -1.0640   29.7030   57.4240 C.3     0  <0>0        0.1096
      5  N1        -0.8190   28.7140   58.5030 N.am    0  <0>0       -0.2545
      6  C5        -0.1540   29.3140   59.5290 C.2     0  <0>0        0.2516
      7  O1         0.2490   28.7710   60.5360 O.2     0  <0>0       -0.2726
      8  C6        -0.0110   30.7660   59.1880 C.3     0  <0>0        0.1969
      9  N2         1.2360   31.4240   59.5210 N.pl3   0  <0>0       -0.1362
     10  N3         1.7360   31.8340   58.4610 N.2     0  <0>0       -0.1717
     11  C13       -0.9180   29.0630   56.0670 C.ar    0  <0>0       -0.0035
     12  C18        0.1880   28.2840   55.7860 C.ar    0  <0>0       -0.0030
     13  C17        0.3200   27.6930   54.5430 C.ar    0  <0>0       -0.0045
     14  C16       -0.6510   27.8900   53.5780 C.ar    0  <0>0       -0.0225
     15  C15       -1.7550   28.6740   53.8570 C.ar    0  <0>0       -0.0045
     16  C14       -1.8880   29.2610   55.1020 C.ar    0  <0>0       -0.0030
     17  C19       -0.5060   27.2500   52.2220 C.3     0  <0>0        0.0224
     18  C20       -0.4970   25.7270   52.3750 C.3     0  <0>0        0.0047
     19  C21       -1.6800   27.6650   51.3330 C.3     0  <0>0        0.0047
     20  C7        -1.2110   27.3710   58.4720 C.ar    0  <0>0        0.0542
     21  C12       -0.2530   26.3680   58.3970 C.ar    0  <0>0        0.0154
     22  C11       -0.6430   25.0430   58.3710 C.ar    0  <0>0        0.0080
     23  C10       -1.9870   24.7150   58.4090 C.ar    0  <0>0        0.0346
     24  C9        -2.9440   25.7120   58.4790 C.ar    0  <0>0        0.0080
     25 Br         -2.5170   22.9010   58.3670 Br      0  <0>0       -0.0490
     26  C8        -2.5580   27.0380   58.5100 C.ar    0  <0>0        0.0154
@<TRIPOS>BOND
     1    19    17    1
     2    17    18    1
     3    17    14    1
     4    14    15   ar
     5    14    13   ar
     6    15    16   ar
     7    13    12   ar
     8    16    11   ar
     9    12    11   ar
    10     1     2    1
    11    11     4    1
    12     2     3    1
    13     2    10    2
    14     4     3    1
    15     4     5    1
    16     3     8    1
    17    25    23    1
    18    22    21   ar
    19    22    23   ar
    20    21    20   ar
    21    23    24   ar
    22    10     9    1
    23    20     5    1
    24    20    26   ar
    25    24    26   ar
    26     5     6   am
    27     8     9    1
    28     8     6    1
    29     6     7    2
