@<TRIPOS>MOLECULE
ZINC19738163_replica-1.pdb
 26 27 0 0 0
SMALL
GASTEIGER

@<TRIPOS>ATOM
      1  C3         0.5330   33.0020   57.2690 C.3     0  <0>0        0.1312
      2  C2         0.5170   33.8490   58.5430 C.3     0  <0>0        0.1854
      3  C1         1.0220   35.2570   58.2270 C.3     0  <0>0        0.0491
      4  O2         1.3660   33.2470   59.5240 O.3     0  <0>0       -0.4774
      5  C14        0.7570   32.6040   60.5550 C.ar    0  <0>0        0.1384
      6  C19        0.3490   33.3160   61.6730 C.ar    0  <0>0        0.0366
      7  C18       -0.2750   32.6620   62.7180 C.ar    0  <0>0       -0.0012
      8  C17       -0.4810   31.2960   62.6550 C.ar    0  <0>0       -0.0223
      9  C16       -0.0700   30.5840   61.5440 C.ar    0  <0>0       -0.0012
     10  C15        0.5480   31.2340   60.4940 C.ar    0  <0>0        0.0366
     11  C20       -1.1560   30.5840   63.7990 C.3     0  <0>0        0.0224
     12  C21       -2.2460   29.6600   63.2530 C.3     0  <0>0        0.0047
     13  C22       -0.1230   29.7560   64.5660 C.3     0  <0>0        0.0047
     14  N1        -0.7640   32.3410   57.1060 N.pl3   0  <0>0       -0.3298
     15  H7        -1.4960   32.5520   57.7070 H       0  <0>0        0.1469
     16  C4        -0.9490   31.4060   56.0810 C.ar    0  <0>0        0.0449
     17  C9         0.1380   30.9690   55.3350 C.ar    0  <0>0        0.0174
     18  C8        -0.0440   30.0420   54.3270 C.ar    0  <0>0        0.0382
     19  C7        -1.3140   29.5570   54.0520 C.ar    0  <0>0        0.1386
     20  C6        -2.4010   29.9960   54.7930 C.ar    0  <0>0        0.0382
     21  C5        -2.2200   30.9190   55.8050 C.ar    0  <0>0        0.0174
     22  O1        -1.4930   28.6480   53.0560 O.3     0  <0>0       -0.4755
     23  C10       -0.6970   27.4630   53.1100 C.3     0  <0>0        0.2053
     24  C11       -0.6660   26.8070   51.7270 C.3     0  <0>0        0.0438
     25  C12       -0.7000   25.2860   51.8820 C.3     0  <0>0        0.0038
     26  C13       -1.8830   27.2650   50.9190 C.3     0  <0>0        0.0038
@<TRIPOS>BOND
     1    26    24    1
     2    24    25    1
     3    24    23    1
     4    22    23    1
     5    22    19    1
     6    19    18   ar
     7    19    20   ar
     8    18    17   ar
     9    20    21   ar
    10    17    16   ar
    11    21    16   ar
    12    16    14    1
    13    14     1    1
    14    14    15    1
    15     1     2    1
    16     3     2    1
    17     2     4    1
    18     4     5    1
    19    10     5   ar
    20    10     9   ar
    21     5     6   ar
    22     9     8   ar
    23     6     7   ar
    24     8     7   ar
    25     8    11    1
    26    12    11    1
    27    11    13    1
