@<TRIPOS>MOLECULE
ZINC43548657_replica-1.pdb
 35 38 0 0 0
SMALL
GASTEIGER

@<TRIPOS>ATOM
      1  C1         8.8770   33.2200   59.4890 C.3     0  <0>0        0.0072
      2  C2         9.1020   34.7310   59.4280 C.3     0  <0>0        0.0514
      3  C3        10.0500   35.1490   60.5410 C.2     0  <0>0        0.0986
      4  C4         9.8290   36.2860   61.2470 C.3     0  <0>0        0.1034
      5  S1        11.1860   36.3060   62.3850 S.3     0  <0>0       -0.0611
      6  C5        11.9210   34.8770   61.8760 C.2     0  <0>0        0.2106
      7  N1        11.1340   34.4660   60.9050 N.2     0  <0>0       -0.3886
      8  C12        8.7090   37.2540   61.0810 C.3     0  <0>0        0.0181
      9  C13        7.9950   36.9630   59.7590 C.3     0  <0>0        0.0039
     10  C14        7.7630   35.4560   59.6050 C.3     0  <0>0        0.0333
     11  C15        6.9340   35.2370   58.3280 C.3     0  <0>0        0.1112
     12  C16        7.7420   35.7330   57.1270 C.3     0  <0>0        0.0355
     13  C17        8.0450   37.2250   57.2810 C.3     0  <0>0        0.0029
     14  C18        8.8250   37.4640   58.5770 C.3     0  <0>0        0.0002
     15  C26        6.6370   37.6650   59.7540 C.3     0  <0>0        0.0001
     16  N2        13.0730   34.2800   62.3630 N.pl3   0  <0>0       -0.2830
     17  H9        13.9270   34.7340   62.2790 H       0  <0>0        0.1551
     18  C6        13.0060   33.0250   62.9770 C.ar    0  <0>0        0.0506
     19  C11       14.1340   32.4840   63.5800 C.ar    0  <0>0        0.0170
     20  C10       14.0640   31.2470   64.1890 C.ar    0  <0>0        0.0309
     21  C9        12.8730   30.5400   64.1890 C.ar    0  <0>0        0.1402
     22  C8        11.7480   31.0750   63.5830 C.ar    0  <0>0        0.0309
     23  F1        12.8070   29.3270   64.7810 F       0  <0>0       -0.2042
     24  C7        11.8130   32.3150   62.9780 C.ar    0  <0>0        0.0170
     25  O2         6.6490   33.8450   58.1750 O.3     0  <0>0       -0.3844
     26  H31        7.4300   33.2770   58.2050 H       0  <0>0        0.2103
     27  C19        6.9350   35.5110   55.8460 C.3     0  <0>0        0.0790
     28  C20        7.5460   36.3330   54.7100 C.3     0  <0>0        0.0096
     29  C21        5.5080   35.9450   56.0690 C.2     0  <0>0        0.2255
     30  O1         5.2700   37.0710   56.4530 O.2     0  <0>0       -0.2749
     31  N3         4.4980   35.0830   55.8420 N.am    0  <0>0       -0.2737
     32  C22        4.7890   33.6980   55.4600 C.3     0  <0>0        0.1152
     33  C23        3.1100   35.5290   55.9780 C.3     0  <0>0        0.1199
     34  C24        2.5640   35.0810   57.3080 C.2     0  <0>0       -0.0047
     35  C25        2.4700   35.9320   58.2990 C.2     0  <0>0       -0.0031
@<TRIPOS>BOND
     1    28    27    1
     2    32    31    1
     3    31    33    1
     4    31    29   am
     5    27    29    1
     6    27    12    1
     7    33    34    1
     8    29    30    2
     9    12    13    1
    10    12    11    1
    11    13    14    1
    12    34    35    2
    13    25    26    1
    14    25    11    1
    15    11    10    1
    16    14     9    1
    17     2     1    1
    18     2    10    1
    19     2     3    1
    20    10     9    1
    21    15     9    1
    22     9     8    1
    23     3     7    2
    24     3     4    1
    25     7     6    2
    26     8     4    1
    27     4     5    1
    28     6    16    1
    29     6     5    1
    30    17    16    1
    31    16    18    1
    32    18    24   ar
    33    18    19   ar
    34    24    22   ar
    35    19    20   ar
    36    22    21   ar
    37    20    21   ar
    38    21    23    1
