@<TRIPOS>MOLECULE
ZINC03199897_replica-1.pdb
 26 27 0 0 0
SMALL
GASTEIGER

@<TRIPOS>ATOM
      1  C10        8.5350   37.1570   58.2880 C.2     0  <0>0        0.0608
      2  C11        9.0300   35.9420   58.6390 C.2     0  <0>0        0.0421
      3  C9         7.7520   37.2880   57.1170 C.2     0  <0>0        0.2461
      4  N1         7.2540   36.1900   56.5130 N.am    0  <0>0       -0.3009
      5  H18        7.4340   35.3110   56.8800 H       0  <0>0        0.1497
      6  O1         7.5270   38.3920   56.6540 O.2     0  <0>0       -0.2701
      7  C8         6.4440   36.3260   55.3000 C.3     0  <0>0        0.0896
      8  C6         5.2070   35.4330   55.4110 C.3     0  <0>0        0.0196
      9  C7         5.0440   34.6250   54.1210 C.3     0  <0>0        0.0017
     10  C5         3.9670   36.3030   55.6280 C.3     0  <0>0        0.0017
     11  C4         2.9130   35.5050   56.4000 C.3     0  <0>0        0.0001
     12  C3         2.8130   36.0430   57.8280 C.3     0  <0>0        0.0000
     13  C2         3.7640   35.2610   58.7360 C.3     0  <0>0        0.0000
     14  C1         4.8610   36.1950   59.2510 C.3     0  <0>0        0.0000
     15  C12        9.8120   35.8100   59.8100 C.ar    0  <0>0        0.1455
     16  O2        10.5330   34.7250   60.1600 O.2     0  <0>0       -0.4535
     17  C15       11.1510   34.9580   61.3310 C.ar    0  <0>0        0.1453
     18  C14       10.8240   36.2270   61.7540 C.ar    0  <0>0        0.0406
     19  C13        9.9730   36.7720   60.7900 C.ar    0  <0>0        0.0406
     20  C16       12.0320   34.0130   62.0440 C.ar    0  <0>0        0.0347
     21  C21       13.3910   34.3020   62.1990 C.ar    0  <0>0        0.0053
     22  C20       14.2090   33.4150   62.8660 C.ar    0  <0>0        0.0297
     23  C19       13.6870   32.2400   63.3830 C.ar    0  <0>0        0.1401
     24  C18       12.3400   31.9480   63.2320 C.ar    0  <0>0        0.0297
     25  F1        14.4930   31.3760   64.0370 F       0  <0>0       -0.2042
     26  C17       11.5110   32.8290   62.5710 C.ar    0  <0>0        0.0053
@<TRIPOS>BOND
     1     9     8    1
     2     7     8    1
     3     7     4    1
     4     8    10    1
     5    10    11    1
     6    11    12    1
     7     4     5    1
     8     4     3   am
     9     6     3    2
    10     3     1    1
    11    12    13    1
    12     1     2    2
    13     2    15    1
    14    13    14    1
    15    15    16   ar
    16    15    19   ar
    17    16    17   ar
    18    19    18   ar
    19    17    18   ar
    20    17    20    1
    21    20    21   ar
    22    20    26   ar
    23    21    22   ar
    24    26    24   ar
    25    22    23   ar
    26    24    23   ar
    27    23    25    1
