@<TRIPOS>MOLECULE
ZINC01446652_replica-1.pdb
 30 33 0 0 0
SMALL
GASTEIGER

@<TRIPOS>ATOM
      1  C8         9.8420   34.7070   60.4400 C.ar    0  <0>0        0.0988
      2  C9         9.0760   33.5110   60.8130 C.ar    0  <0>0        0.0177
      3  C10        9.9110   32.7460   61.6060 C.ar    0  <0>0        0.0976
      4  N1        11.0830   33.3980   61.7180 N.ar    0  <0>0       -0.2285
      5  N2        11.0260   34.5950   61.0000 N.ar    0  <0>0       -0.1654
      6  C17        7.6970   33.1940   60.4270 C.3     0  <0>0        0.0499
      7  C18        7.3030   31.8990   60.3160 C.3     0  <0>0        0.1346
      8  S2         7.5960   30.7280   58.9970 S.3     0  <0>0       -0.0831
      9  C20        6.7350   29.3370   59.7090 C.2     0  <0>0        0.1171
     10  N3         6.2740   29.8260   60.8780 N.am    0  <0>0       -0.2476
     11  S1         6.5340   27.7650   59.0620 S.2     0  <0>0       -0.0275
     12  C19        6.5110   31.0740   61.2460 C.2     0  <0>0        0.2404
     13  O1         6.0980   31.5190   62.3010 O.2     0  <0>0       -0.2736
     14  C21        5.4920   28.9560   61.7610 C.3     0  <0>0        0.0991
     15  C22        6.4020   28.3820   62.8490 C.3     0  <0>0        0.0203
     16  C23        5.6220   28.2690   64.1600 C.3     0  <0>0        0.0018
     17  C24        6.8910   26.9950   62.4260 C.3     0  <0>0        0.0018
     18  C5         9.3690   35.8270   59.5930 C.ar    0  <0>0        0.0191
     19  C4         9.2100   37.0990   60.1400 C.ar    0  <0>0        0.0012
     20  C3         8.7700   38.1390   59.3470 C.ar    0  <0>0       -0.0042
     21  C2         8.4870   37.9200   58.0100 C.ar    0  <0>0       -0.0218
     22  C1         8.0050   39.0590   57.1490 C.3     0  <0>0        0.0310
     23  C7         8.6430   36.6590   57.4610 C.ar    0  <0>0       -0.0042
     24  C6         9.0880   35.6140   58.2440 C.ar    0  <0>0        0.0012
     25  C11       12.1920   32.9460   62.4440 C.ar    0  <0>0        0.0828
     26  C16       13.3320   33.7350   62.5390 C.ar    0  <0>0        0.0191
     27  C15       14.4240   33.2850   63.2550 C.ar    0  <0>0        0.0015
     28  C14       14.3830   32.0520   63.8790 C.ar    0  <0>0        0.0001
     29  C13       13.2510   31.2640   63.7870 C.ar    0  <0>0        0.0015
     30  C12       12.1530   31.7090   63.0760 C.ar    0  <0>0        0.0191
@<TRIPOS>BOND
     1    22    21    1
     2    23    21   ar
     3    23    24   ar
     4    21    20   ar
     5    24    18   ar
     6     8     9    1
     7     8     7    1
     8    11     9    2
     9    20    19   ar
    10    18    19   ar
    11    18     1    1
    12     9    10    1
    13     7     6    1
    14     7    12    1
    15     6     2    1
    16     1     2   ar
    17     1     5   ar
    18     2     3   ar
    19    10    12   am
    20    10    14    1
    21     5     4   ar
    22    12    13    2
    23     3     4   ar
    24     4    25    1
    25    14    15    1
    26    17    15    1
    27    25    26   ar
    28    25    30   ar
    29    26    27   ar
    30    15    16    1
    31    30    29   ar
    32    27    28   ar
    33    29    28   ar
