@<TRIPOS>MOLECULE
ZINC02333318_replica-1.pdb
 28 30 0 0 0
SMALL
GASTEIGER

@<TRIPOS>ATOM
      1  C4        10.3940   35.6610   60.7850 C.1     0  <0>0        0.1692
      2  N1        10.0860   34.4870   60.2490 N.2     0  <0>0       -0.3236
      3  C5         9.2990   34.3810   59.1910 C.2     0  <0>0        0.1805
      4  C6         8.7700   35.5610   58.5970 C.3     0  <0>0        0.1456
      5  C7         7.8940   35.6880   57.4340 C.2     0  <0>0       -0.0227
      6  C8         7.5320   36.9360   57.0690 C.2     0  <0>0        0.0319
      7  S2         8.3250   38.0060   58.2370 S.3     0  <0>0       -0.0606
      8  C9         9.1430   36.7720   59.2150 C.2     0  <0>0        0.1625
      9  N2         9.9310   36.7940   60.2730 N.2     0  <0>0       -0.3319
     10  C10        6.6480   37.3020   55.9180 C.3     0  <0>0        0.1742
     11  O1         6.5070   36.1420   55.0820 O.3     0  <0>0       -0.3529
     12  C11        6.1790   34.9530   55.8070 C.3     0  <0>0        0.0971
     13  C12        7.3830   34.4910   56.6340 C.3     0  <0>0        0.0503
     14  C13        5.0020   35.2370   56.7400 C.3     0  <0>0        0.0300
     15  C14        5.7910   33.8490   54.8210 C.3     0  <0>0        0.0300
     16  N3         8.9970   33.1380   58.6660 N.pl3   0  <0>0       -0.3106
     17  H18        9.3230   32.8910   57.7870 H       0  <0>0        0.1489
     18  C15        8.1840   32.1940   59.4380 C.3     0  <0>0        0.0867
     19  C16        8.0960   30.8640   58.6870 C.3     0  <0>0       -0.0016
     20  C17        7.3560   31.0760   57.3640 C.3     0  <0>0       -0.0758
     21  N4         6.0320   30.4230   57.4490 N.4     0  <0>0        0.3841
     22  C18        6.0660   29.3410   58.4560 C.3     0  <0>0       -0.1008
     23  C19        5.0020   31.4180   57.8120 C.3     0  <0>0       -0.1008
     24  H31        5.7990   30.0200   56.5340 H       0  <0>0       -0.0799
     25  S1        11.4450   35.7180   62.1980 S.3     0  <0>0       -0.0181
     26  C3        12.0950   34.0280   62.1730 C.3     0  <0>0        0.0744
     27  C2        13.6240   34.0680   62.2390 C.3     0  <0>0        0.0128
     28  C1        14.1280   32.9080   63.1000 C.3     0  <0>0        0.0010
@<TRIPOS>BOND
     1    15    12    1
     2    11    12    1
     3    11    10    1
     4    12    13    1
     5    12    14    1
     6    10     6    1
     7    24    21    1
     8    13     5    1
     9     6     5    2
    10     6     7    1
    11    20    21    1
    12    20    19    1
    13     5     4    1
    14    21    23    1
    15    21    22    1
    16    17    16    1
    17     7     8    1
    18     4     3    1
    19     4     8    1
    20    16     3    1
    21    16    18    1
    22    19    18    1
    23     3     2    2
    24     8     9    2
    25     2     1    2
    26     9     1    2
    27     1    25    1
    28    26    25    1
    29    26    27    1
    30    27    28    1
