@<TRIPOS>MOLECULE
ZINC37177100_replica-1.pdb
 22 23 0 0 0
SMALL
GASTEIGER

@<TRIPOS>ATOM
      1  N1         0.6690   30.1170   55.2380 N.3     0  <0>0       -0.2948
      2  H8         1.5290   29.6430   55.4670 H       0  <0>0        0.1235
      3  C3        -0.2460   29.2280   54.5120 C.3     0  <0>0        0.0731
      4  C2         0.3950   27.8460   54.3650 C.3     0  <0>0        0.0381
      5  C1         0.1890   27.0480   55.6550 C.3     0  <0>0        0.0061
      6  C12       -0.2470   27.1140   53.2140 C.ar    0  <0>0       -0.0212
      7  C17       -1.0440   27.7990   52.3170 C.ar    0  <0>0       -0.0042
      8  C16       -1.6290   27.1280   51.2600 C.ar    0  <0>0       -0.0003
      9  C15       -1.4240   25.7700   51.1050 C.ar    0  <0>0       -0.0000
     10  C14       -0.6300   25.0830   52.0040 C.ar    0  <0>0       -0.0003
     11  C13       -0.0420   25.7550   53.0600 C.ar    0  <0>0       -0.0042
     12  C4         0.0300   30.6600   56.4440 C.3     0  <0>0        0.0769
     13  C5        -1.4720   30.8220   56.1970 C.3     0  <0>0        0.0220
     14  C6         0.6320   32.0020   56.7730 C.ar    0  <0>0       -0.0079
     15  C11        0.0040   32.8390   57.6760 C.ar    0  <0>0       -0.0013
     16  C10        0.5580   34.0670   57.9800 C.ar    0  <0>0        0.0238
     17  C9         1.7370   34.4630   57.3750 C.ar    0  <0>0        0.1429
     18  C8         2.3630   33.6270   56.4690 C.ar    0  <0>0        0.0238
     19  C7         1.8100   32.3960   56.1680 C.ar    0  <0>0       -0.0013
     20  N2         2.3300   35.7790   57.6990 N.pl3   0  <0>0        0.0577
     21  O1         2.1050   36.2980   58.7670 O.2     0  <0>0       -0.1261
     22  O2         3.0400   36.3370   56.8940 O.2     0  <0>0       -0.1261
@<TRIPOS>BOND
     1     9     8   ar
     2     9    10   ar
     3     8     7   ar
     4    10    11   ar
     5     7     6   ar
     6    11     6   ar
     7     6     4    1
     8     4     3    1
     9     4     5    1
    10     3     1    1
    11     1     2    1
    12     1    12    1
    13    19    18   ar
    14    19    14   ar
    15    13    12    1
    16    12    14    1
    17    18    17   ar
    18    14    15   ar
    19    22    20    2
    20    17    20    1
    21    17    16   ar
    22    15    16   ar
    23    20    21    2
