@<TRIPOS>MOLECULE
ZINC37224313_replica-1.pdb
 21 22 0 0 0
SMALL
GASTEIGER

@<TRIPOS>ATOM
      1  C9         7.8220   36.7670   58.2100 C.3     0  <0>0        0.0919
      2  C6         8.8530   36.3710   59.2350 C.ar    0  <0>0       -0.0046
      3  C5         9.0810   37.1790   60.3330 C.ar    0  <0>0       -0.0030
      4  C4        10.0270   36.8170   61.2740 C.ar    0  <0>0       -0.0045
      5  C3        10.7440   35.6450   61.1170 C.ar    0  <0>0       -0.0222
      6  C8        10.5200   34.8390   60.0160 C.ar    0  <0>0       -0.0045
      7  C7         9.5710   35.2010   59.0770 C.ar    0  <0>0       -0.0030
      8  C2        11.7750   35.2490   62.1420 C.3     0  <0>0        0.0264
      9  C1        11.8120   33.7250   62.2670 C.3     0  <0>0        0.0050
     10  C10        8.5250   37.2780   56.9500 C.3     0  <0>0        0.0241
     11  C11        8.5740   38.8070   56.9790 C.3     0  <0>0        0.0021
     12  N1         6.9980   35.6030   57.8710 N.pl3   0  <0>0       -0.3299
     13  H16        7.4020   34.7240   57.8120 H       0  <0>0        0.1471
     14  C12        5.6280   35.7620   57.6340 C.ar    0  <0>0        0.0557
     15  C17        4.7260   35.6870   58.6870 C.ar    0  <0>0        0.0730
     16  C16        3.3740   35.8510   58.4500 C.ar    0  <0>0        0.0423
     17 Cl          5.2970   35.3980   60.3010 Cl      0  <0>0       -0.0809
     18  C15        2.9180   36.0750   57.1620 C.ar    0  <0>0        0.1411
     19  C14        3.8160   36.1430   56.1100 C.ar    0  <0>0        0.0310
     20  F1         1.5960   36.2300   56.9320 F       0  <0>0       -0.2041
     21  C13        5.1680   35.9870   56.3430 C.ar    0  <0>0        0.0175
@<TRIPOS>BOND
     1    19    21   ar
     2    19    18   ar
     3    21    14   ar
     4    20    18    1
     5    10    11    1
     6    10     1    1
     7    18    16   ar
     8    14    12    1
     9    14    15   ar
    10    13    12    1
    11    12     1    1
    12     1     2    1
    13    16    15   ar
    14    15    17    1
    15     7     2   ar
    16     7     6   ar
    17     2     3   ar
    18     6     5   ar
    19     3     4   ar
    20     5     4   ar
    21     5     8    1
    22     8     9    1
