@<TRIPOS>MOLECULE
ZINC40063567_replica-1.pdb
 28 31 0 0 0
SMALL
GASTEIGER

@<TRIPOS>ATOM
      1  N1         0.2280   30.0320   58.7490 N.am    0  <0>0       -0.2675
      2  C5        -0.3650   30.7920   57.6360 C.3     0  <0>0        0.1270
      3  C6        -0.2870   29.8960   56.4440 C.ar    0  <0>0        0.0780
      4  C7        -0.7240   30.0920   55.0580 C.ar    0  <0>0        0.1995
      5  O1        -1.0950   31.1680   54.6210 O.2     0  <0>0       -0.2866
      6  C8        -0.6690   28.8570   54.2370 C.ar    0  <0>0        0.0730
      7  C9        -1.2340   28.8300   52.9620 C.ar    0  <0>0        0.0059
      8  C10       -1.1800   27.6820   52.2210 C.ar    0  <0>0       -0.0043
      9  C11       -0.5660   26.5480   52.7320 C.ar    0  <0>0       -0.0229
     10  C12       -0.0020   26.5570   53.9880 C.ar    0  <0>0        0.0089
     11  C13       -0.0410   27.7170   54.7630 C.ar    0  <0>0        0.1442
     12  O2         0.5290   27.7060   55.9900 O.2     0  <0>0       -0.4493
     13  C14        0.3040   28.7290   56.8380 C.ar    0  <0>0        0.1994
     14  C15        0.6190   28.8320   58.2730 C.2     0  <0>0        0.2840
     15  O3         1.1530   27.9620   58.9320 O.2     0  <0>0       -0.2666
     16  C16        0.6590   25.3140   54.5250 C.3     0  <0>0        0.0339
     17  C17       -0.5170   25.2900   51.9040 C.3     0  <0>0        0.0308
     18  C18        0.4210   32.0550   57.3920 C.ar    0  <0>0        0.0001
     19  C23        1.6570   31.9920   56.7770 C.ar    0  <0>0       -0.0018
     20  C22        2.3760   33.1490   56.5490 C.ar    0  <0>0        0.0064
     21  C21        1.8620   34.3710   56.9460 C.ar    0  <0>0        0.0345
     22  C20        0.6280   34.4340   57.5650 C.ar    0  <0>0        0.0064
     23 Br          2.8480   35.9560   56.6390 Br      0  <0>0       -0.0490
     24  C19       -0.0920   33.2750   57.7890 C.ar    0  <0>0       -0.0018
     25  C4         0.3740   30.5000   60.1290 C.3     0  <0>0        0.0944
     26  C3         1.7980   31.0130   60.3470 C.3     0  <0>0        0.0215
     27  C2         1.7490   32.4450   60.8820 C.3     0  <0>0        0.0018
     28  C1         2.9470   33.2320   60.3460 C.3     0  <0>0        0.0001
@<TRIPOS>BOND
     1    17     9    1
     2     8     9   ar
     3     8     7   ar
     4     9    10   ar
     5     7     6   ar
     6    10    16    1
     7    10    11   ar
     8     6    11   ar
     9     6     4   ar
    10     5     4    2
    11    11    12   ar
    12     4     3   ar
    13    12    13   ar
    14     3    13   ar
    15     3     2    1
    16    20    19   ar
    17    20    21   ar
    18    23    21    1
    19    19    18   ar
    20    13    14    1
    21    21    22   ar
    22    18     2    1
    23    18    24   ar
    24    22    24   ar
    25     2     1    1
    26    14     1   am
    27    14    15    2
    28     1    25    1
    29    25    26    1
    30    28    27    1
    31    26    27    1
