@<TRIPOS>MOLECULE
ZINC04704066_replica-1.pdb
 23 26 0 0 0
SMALL
GASTEIGER

@<TRIPOS>ATOM
      1  C5         4.2840   33.8310   56.5270 C.3     0  <0>0        0.1521
      2  N1         5.6240   34.2390   57.0110 N.am    0  <0>0       -0.2719
      3  C6         6.5730   34.4020   55.8890 C.3     0  <0>0        0.1637
      4  C7         5.9150   35.3250   54.8260 C.3     0  <0>0        0.0886
      5  S2         4.2000   34.6400   54.8750 S.3     0  <0>0       -0.1140
      6  C8         7.7510   35.1040   56.5230 C.2     0  <0>0        0.2533
      7  O1         8.7200   35.5670   55.9590 O.2     0  <0>0       -0.2723
      8  N2         7.4970   35.1080   57.8480 N.am    0  <0>0       -0.2185
      9  C9         6.3140   34.5430   58.1240 C.2     0  <0>0        0.1487
     10  S3         5.7460   34.2440   59.7110 S.2     0  <0>0       -0.0177
     11  C10        8.3640   35.6370   58.8160 C.ar    0  <0>0        0.0607
     12  C15        9.3350   34.8300   59.3930 C.ar    0  <0>0        0.0289
     13  C14       10.1880   35.3530   60.3470 C.ar    0  <0>0        0.0863
     14  C13       10.0740   36.6800   60.7260 C.ar    0  <0>0        0.1507
     15 Cl         11.4030   34.3450   61.0700 Cl      0  <0>0       -0.0799
     16  C12        9.1050   37.4860   60.1510 C.ar    0  <0>0        0.0318
     17  F1        10.9090   37.1890   61.6590 F       0  <0>0       -0.2033
     18  C11        8.2560   36.9680   59.1930 C.ar    0  <0>0        0.0176
     19  C3         3.2040   34.3570   57.4370 C.ar    0  <0>0        0.0356
     20  C2         2.8260   35.6390   57.6620 C.ar    0  <0>0        0.0052
     21  C1         1.7970   35.8900   58.5490 C.ar    0  <0>0        0.0072
     22  C4         1.1960   34.8450   59.1700 C.ar    0  <0>0        0.0352
     23  S1         2.0890   33.4530   58.4970 S.2     0  <0>0       -0.0883
@<TRIPOS>BOND
     1     4     5    1
     2     4     3    1
     3     5     1    1
     4     3     6    1
     5     3     2    1
     6     7     6    2
     7     6     8   am
     8     1     2    1
     9     1    19    1
    10     2     9    1
    11    19    20   ar
    12    19    23   ar
    13    20    21   ar
    14     8     9    1
    15     8    11    1
    16     9    10    2
    17    23    22   ar
    18    21    22   ar
    19    11    18   ar
    20    11    12   ar
    21    18    16   ar
    22    12    13   ar
    23    16    14   ar
    24    13    14   ar
    25    13    15    1
    26    14    17    1
