@<TRIPOS>MOLECULE
ZINC25678381_replica-1.pdb
 25 27 0 0 0
SMALL
GASTEIGER

@<TRIPOS>ATOM
      1  C9        -0.5370   30.9470   55.5580 C.2     0  <0>0        0.1439
      2  C10       -1.7390   30.9520   56.1840 C.3     0  <0>0        0.1240
      3  S1        -2.7500   30.1120   54.9730 S.3     0  <0>0       -0.0596
      4  C11       -1.5050   29.8350   53.7930 C.2     0  <0>0        0.2107
      5  N1        -0.4510   30.3830   54.3680 N.2     0  <0>0       -0.3848
      6  C8         0.6720   31.5700   56.2050 C.3     0  <0>0        0.2602
      7  O1         0.3790   32.9220   56.5600 O.3     0  <0>0       -0.4665
      8  C6         0.5940   33.2820   57.8520 C.ar    0  <0>0        0.1611
      9  C5         0.9300   34.5920   58.1620 C.ar    0  <0>0        0.1765
     10  C4         1.1460   34.9560   59.4780 C.ar    0  <0>0        0.0269
     11  C3         1.0270   34.0160   60.4840 C.ar    0  <0>0       -0.0024
     12  C2         0.6910   32.7100   60.1780 C.ar    0  <0>0       -0.0187
     13  C1         0.5620   31.6870   61.2770 C.3     0  <0>0        0.0311
     14  C7         0.4690   32.3420   58.8650 C.ar    0  <0>0        0.0344
     15  N3         1.0570   35.5990   57.0850 N.pl3   0  <0>0        0.0607
     16  O2         0.0590   36.1120   56.6100 O.2     0  <0>0       -0.1260
     17  O3         2.1590   35.9140   56.6720 O.2     0  <0>0       -0.1260
     18  N2        -1.5970   29.2050   52.5610 N.pl3   0  <0>0       -0.2830
     19  H10       -1.9730   29.7580   51.6880 H       0  <0>0        0.1551
     20  C12       -1.2130   27.8680   52.4300 C.ar    0  <0>0        0.0505
     21  C17       -1.6290   27.1280   51.3300 C.ar    0  <0>0        0.0147
     22  C16       -1.2490   25.8060   51.2050 C.ar    0  <0>0        0.0013
     23  C15       -0.4500   25.2200   52.1700 C.ar    0  <0>0        0.0001
     24  C14       -0.0390   25.9520   53.2690 C.ar    0  <0>0        0.0013
     25  C13       -0.4150   27.2750   53.4010 C.ar    0  <0>0        0.0147
@<TRIPOS>BOND
     1    22    21   ar
     2    22    23   ar
     3    21    20   ar
     4    19    18    1
     5    23    24   ar
     6    20    18    1
     7    20    25   ar
     8    18     4    1
     9    24    25   ar
    10     4     5    2
    11     4     3    1
    12     5     1    2
    13     3     2    1
    14     1     2    1
    15     1     6    1
    16     6     7    1
    17     7     8    1
    18    16    15    2
    19    17    15    2
    20    15     9    1
    21     8     9   ar
    22     8    14   ar
    23     9    10   ar
    24    14    12   ar
    25    10    11   ar
    26    12    11   ar
    27    12    13    1
