@<TRIPOS>MOLECULE
ZINC01403779_replica-1.pdb
 27 29 0 0 0
SMALL
GASTEIGER

@<TRIPOS>ATOM
      1  C17        3.4690   35.1060   58.6100 C.2     0  <0>0        0.0559
      2  C18        3.0580   34.0970   59.4230 C.2     0  <0>0        0.0601
      3  C19        1.6480   33.5740   59.3240 C.3     0  <0>0        0.0477
      4  C20        0.7010   34.7220   58.9680 C.3     0  <0>0        0.0908
      5  C21        1.2700   35.5100   57.8180 C.2     0  <0>0        0.2265
      6  O2         0.5250   36.0060   57.0000 O.2     0  <0>0       -0.2748
      7  N1         2.6010   35.6640   57.6880 N.am    0  <0>0       -0.2836
      8  C22        3.9650   33.5290   60.3730 C.1     0  <0>0        0.0973
      9  N2         4.6850   33.0790   61.1260 N.1     0  <0>0       -0.1911
     10  H22        2.9550   36.1740   56.9420 H       0  <0>0        0.1549
     11  C14        4.8500   35.6120   58.7130 C.ar    0  <0>0        0.0140
     12  C13        5.1920   36.5160   59.7230 C.ar    0  <0>0        0.0044
     13  C12        6.4830   36.9870   59.8170 C.ar    0  <0>0        0.0375
     14  C11        7.4460   36.5620   58.9090 C.ar    0  <0>0        0.1453
     15  C16        7.1120   35.6620   57.9040 C.ar    0  <0>0        0.0375
     16  C15        5.8230   35.1840   57.8060 C.ar    0  <0>0        0.0044
     17  O1         8.7180   37.0280   59.0050 O.3     0  <0>0       -0.4535
     18  C8         9.5690   36.3890   59.8510 C.ar    0  <0>0        0.1453
     19  C7        10.0530   35.1290   59.5280 C.ar    0  <0>0        0.0372
     20  C6        10.9180   34.4820   60.3900 C.ar    0  <0>0       -0.0012
     21  C5        11.3000   35.0890   61.5720 C.ar    0  <0>0       -0.0226
     22  C10       10.8190   36.3440   61.8960 C.ar    0  <0>0       -0.0012
     23  C9         9.9590   36.9980   61.0350 C.ar    0  <0>0        0.0372
     24  C2        12.2430   34.3800   62.5110 C.3     0  <0>0        0.0189
     25  C1        13.6100   34.2270   61.8410 C.3     0  <0>0        0.0044
     26  C3        12.3930   35.1970   63.7960 C.3     0  <0>0        0.0044
     27  C4        11.6820   32.9970   62.8480 C.3     0  <0>0        0.0044
@<TRIPOS>BOND
     1    10     7    1
     2     6     5    2
     3     7     5   am
     4     7     1    1
     5    16    15   ar
     6    16    11   ar
     7     5     4    1
     8    15    14   ar
     9     1    11    1
    10     1     2    2
    11    11    12   ar
    12    14    17    1
    13    14    13   ar
    14     4     3    1
    15    17    18    1
    16     3     2    1
    17     2     8    1
    18    19    18   ar
    19    19    20   ar
    20    12    13   ar
    21    18    23   ar
    22     8     9    3
    23    20    21   ar
    24    23    22   ar
    25    21    22   ar
    26    21    24    1
    27    25    24    1
    28    24    27    1
    29    24    26    1
