@<TRIPOS>MOLECULE
ZINC00679742_replica-1.pdb
 24 26 0 0 0
SMALL
GASTEIGER

@<TRIPOS>ATOM
      1  C1         0.1950   26.0100   53.8700 C.ar    0  <0>0        0.0106
      2  C2         0.1780   27.0270   54.7970 C.ar    0  <0>0        0.0075
      3  C3        -0.4610   28.2340   54.4990 C.ar    0  <0>0        0.0812
      4  C4        -1.0870   28.4050   53.2600 C.ar    0  <0>0        0.1451
      5  C5        -1.0650   27.3860   52.3290 C.ar    0  <0>0        0.0401
      6  C6        -0.4260   26.1820   52.6300 C.ar    0  <0>0        0.0707
      7  C7        -0.4060   25.1220   51.6670 C.1     0  <0>0        0.1005
      8  N1        -0.3910   24.2820   50.9030 N.1     0  <0>0       -0.1908
      9  F1        -1.7100   29.5700   52.9720 F       0  <0>0       -0.2040
     10  C8        -0.4790   29.3250   55.4940 C.2     0  <0>0        0.2538
     11  O1        -1.5390   29.7340   55.9280 O.2     0  <0>0       -0.2697
     12  N2         0.6780   29.8680   55.9220 N.am    0  <0>0       -0.2506
     13  H4         1.5240   29.5410   55.5760 H       0  <0>0        0.1580
     14  C9         0.6600   30.8910   56.8540 C.2     0  <0>0        0.2175
     15  S1         0.6790   32.6570   56.5810 S.3     0  <0>0       -0.0376
     16  C11        0.6290   33.1470   58.2880 C.2     0  <0>0        0.0596
     17  C10        0.6010   31.9030   58.9570 C.2     0  <0>0        0.1503
     18  C12        0.6150   34.3470   58.9530 C.2     0  <0>0       -0.0113
     19  N3         0.6190   30.8100   58.1630 N.2     0  <0>0       -0.3790
     20  C15        0.5580   31.9550   60.3710 C.2     0  <0>0        0.0945
     21  C14        0.5450   33.1600   61.0270 C.2     0  <0>0        0.0528
     22 Cl          0.5210   30.4790   61.2840 Cl      0  <0>0       -0.0790
     23  C13        0.5720   34.3630   60.3350 C.3     0  <0>0        0.0655
     24 Cl          0.4910   33.1810   62.7620 Cl      0  <0>0       -0.0856
@<TRIPOS>BOND
     1     8     7    3
     2     7     6    1
     3     5     6   ar
     4     5     4   ar
     5     6     1   ar
     6     9     4    1
     7     4     3   ar
     8     1     2   ar
     9     3     2   ar
    10     3    10    1
    11    10    12   am
    12    10    11    2
    13    13    12    1
    14    12    14    1
    15    15    14    1
    16    15    16    1
    17    14    19    2
    18    19    17    2
    19    16    18    2
    20    16    17    1
    21    18    23    1
    22    17    20    1
    23    23    21    1
    24    20    21    2
    25    20    22    1
    26    21    24    1
