@<TRIPOS>MOLECULE
ZINC03781369_replica-1.pdb
 25 28 0 0 0
SMALL
GASTEIGER

@<TRIPOS>ATOM
      1  C1         7.5770   35.1870   59.5300 C.3     0  <0>0        0.0005
      2  C2         6.9260   36.5630   59.3880 C.3     0  <0>0        0.0101
      3  C3         5.5910   36.5750   60.1070 C.3     0  <0>0        0.0005
      4  C4         4.7570   35.4130   59.5430 C.3     0  <0>0        0.0004
      5  C5         4.5840   35.5340   58.0340 C.3     0  <0>0        0.0053
      6  C6         5.9420   35.6460   57.3190 C.3     0  <0>0        0.0004
      7  C7         6.6490   36.8610   57.8880 C.3     0  <0>0        0.0005
      8  C8         8.0640   37.1210   57.3590 C.3     0  <0>0        0.0006
      9  C9         8.7060   37.9750   58.4860 C.3     0  <0>0        0.0111
     10  C10        7.9230   37.6470   59.7820 C.3     0  <0>0        0.0990
     11  C13        5.7170   35.8130   55.8170 C.3     0  <0>0        0.0017
     12  C14        4.9450   34.6090   55.2690 C.3     0  <0>0        0.0199
     13  C15        3.6000   34.5110   55.9880 C.3     0  <0>0        0.0755
     14  C16        3.8430   34.3170   57.4860 C.3     0  <0>0        0.0352
     15  C17        2.5200   34.1600   58.1870 C.2     0  <0>0       -0.0205
     16  C18        1.5680   33.4460   57.5820 C.2     0  <0>0        0.0532
     17  C19        1.8490   32.8520   56.2630 C.2     0  <0>0        0.2456
     18  O3         1.2120   31.8900   55.8760 O.2     0  <0>0       -0.2702
     19  N1         2.8180   33.3830   55.4870 N.am    0  <0>0       -0.3022
     20  C20        4.6930   33.0650   57.7050 C.3     0  <0>0        0.0060
     21  H26        2.9940   33.0190   54.6040 H       0  <0>0        0.1497
     22  C11        8.8600   37.1320   60.8450 C.2     0  <0>0        0.3165
     23  O1         8.4990   37.0830   61.9960 O.2     0  <0>0       -0.2501
     24  O2        10.0970   36.7300   60.5110 O.3     0  <0>0       -0.4444
     25  C12       10.7660   35.8280   61.4320 C.3     0  <0>0        0.2556
@<TRIPOS>BOND
     1    21    19    1
     2    12    11    1
     3    12    13    1
     4    19    13    1
     5    19    17   am
     6    11     6    1
     7    18    17    2
     8    13    14    1
     9    17    16    1
    10     6     7    1
    11     6     5    1
    12     8     7    1
    13     8     9    1
    14    14    20    1
    15    14     5    1
    16    14    15    1
    17    16    15    2
    18     7     2    1
    19     5     4    1
    20     9    10    1
    21     2     1    1
    22     2    10    1
    23     2     3    1
    24     4     3    1
    25    10    22    1
    26    24    22    1
    27    24    25    1
    28    22    23    2
