@<TRIPOS>MOLECULE
ZINC06838916_replica-1.pdb
 32 35 0 0 0
SMALL
GASTEIGER

@<TRIPOS>ATOM
      1  C11       -0.2860   29.9200   56.9870 C.3     0  <0>0        0.0552
      2  C10       -0.5820   29.4210   55.5960 C.ar    0  <0>0        0.0004
      3  C7        -0.2160   28.1140   55.0440 C.ar    0  <0>0        0.0130
      4  C6         0.4550   27.0000   55.5510 C.ar    0  <0>0        0.0012
      5  C8        -0.6990   28.1010   53.7230 C.ar    0  <0>0        0.0523
      6  C5         0.6410   25.9020   54.7590 C.ar    0  <0>0       -0.0002
      7  C4         0.1660   25.8840   53.4550 C.ar    0  <0>0       -0.0028
      8  C3        -0.4990   26.9720   52.9340 C.ar    0  <0>0       -0.0066
      9  N1        -1.3090   29.3160   53.5010 N.ar    0  <0>0       -0.3525
     10  H1        -1.7330   29.5840   52.6710 H       0  <0>0        0.1660
     11  C9        -1.2350   30.0860   54.6300 C.ar    0  <0>0        0.0684
     12  C2        -1.0090   26.9410   51.5160 C.3     0  <0>0        0.0278
     13  C1        -1.2870   25.4940   51.1060 C.3     0  <0>0        0.0051
     14  C12       -0.7470   31.3740   57.1150 C.3     0  <0>0        0.0938
     15  C13        0.2930   32.1680   57.8620 C.2     0  <0>0        0.2231
     16  O1         1.3620   31.6610   58.1330 O.2     0  <0>0       -0.2751
     17  N2         0.0360   33.4380   58.2300 N.am    0  <0>0       -0.3059
     18  H15       -0.8180   33.8420   58.0140 H       0  <0>0        0.1494
     19  C14        1.0480   34.2090   58.9570 C.3     0  <0>0        0.0716
     20  C15        0.6160   34.3700   60.4160 C.3     0  <0>0        0.0213
     21  C16        1.1980   35.5890   58.3140 C.3     0  <0>0        0.0180
     22  C17        2.6810   35.9600   58.2410 C.3     0  <0>0        0.0017
     23  C18        0.6090   35.5600   56.9020 C.3     0  <0>0        0.0017
     24  C19       -1.0190   29.0700   57.9920 C.ar    0  <0>0       -0.0147
     25  C24       -0.6050   29.0510   59.3100 C.ar    0  <0>0        0.0362
     26  C23       -1.2800   28.2740   60.2380 C.ar    0  <0>0        0.1761
     27  C22       -2.3700   27.5060   59.8360 C.ar    0  <0>0        0.1764
     28  O2        -1.0820   28.0820   61.5750 O.3     0  <0>0       -0.4346
     29  C21       -2.7770   27.5270   58.5120 C.ar    0  <0>0        0.0399
     30  O3        -2.8540   26.8340   60.9210 O.3     0  <0>0       -0.4346
     31  C20       -2.1010   28.3080   57.5930 C.ar    0  <0>0       -0.0006
     32  C25       -1.8020   26.8800   61.9020 C.3     0  <0>0        0.4294
@<TRIPOS>BOND
     1    13    12    1
     2    12     8    1
     3    10     9    1
     4     8     7   ar
     5     8     5   ar
     6     7     6   ar
     7     9     5   ar
     8     9    11   ar
     9     5     3   ar
    10    11     2   ar
    11     6     4   ar
    12     3     4   ar
    13     3     2   ar
    14     2     1    1
    15    23    21    1
    16     1    14    1
    17     1    24    1
    18    14    15    1
    19    31    24   ar
    20    31    29   ar
    21    15    16    2
    22    15    17   am
    23    24    25   ar
    24    18    17    1
    25    17    19    1
    26    22    21    1
    27    21    19    1
    28    29    27   ar
    29    19    20    1
    30    25    26   ar
    31    27    26   ar
    32    27    30    1
    33    26    28    1
    34    30    32    1
    35    28    32    1
