@<TRIPOS>MOLECULE
ZINC07695767_replica-1.pdb
 26 27 0 0 0
SMALL
GASTEIGER

@<TRIPOS>ATOM
      1  C10        6.2910   36.0120   55.8510 C.2     0  <0>0        0.2383
      2  N2         7.2760   36.6400   55.1710 N.pl3   0  <0>0       -0.1952
      3  H2         7.2480   36.9320   54.2470 H       0  <0>0        0.1783
      4  N3         8.3480   36.7840   56.0670 N.2     0  <0>0       -0.1128
      5  C11        7.9690   36.2530   57.2070 C.1     0  <0>0        0.1053
      6  N4         6.7180   35.7910   57.0760 N.2     0  <0>0       -0.3261
      7  S1         4.7090   35.5760   55.2120 S.3     0  <0>0       -0.0550
      8  C9         4.7460   33.7630   55.1460 C.3     0  <0>0        0.1507
      9  C8         3.6970   33.2040   56.0720 C.2     0  <0>0        0.2339
     10  N1         2.4290   33.0500   55.6410 N.am    0  <0>0       -0.3052
     11  H17        2.1920   33.2990   54.7340 H       0  <0>0        0.1494
     12  O1         3.9940   32.8930   57.2060 O.2     0  <0>0       -0.2741
     13  C6         1.4090   32.5080   56.5420 C.3     0  <0>0        0.0716
     14  C7         0.5160   31.5330   55.7720 C.3     0  <0>0        0.0213
     15  C5         0.5570   33.6510   57.0950 C.3     0  <0>0        0.0196
     16  C4         0.4940   33.5480   58.6200 C.3     0  <0>0        0.0017
     17  C3         0.9970   34.8530   59.2410 C.3     0  <0>0        0.0001
     18  C2         1.6860   35.6960   58.1650 C.3     0  <0>0        0.0000
     19  C1         3.1250   35.9930   58.5930 C.3     0  <0>0        0.0000
     20  C12        8.7900   36.1820   58.4410 C.ar    0  <0>0        0.0816
     21  C17        8.7500   37.2220   59.3690 C.ar    0  <0>0        0.0449
     22  C16        9.5120   37.1480   60.5190 C.ar    0  <0>0        0.0074
     23 Br          7.6480   38.7280   59.0570 Br      0  <0>0       -0.0483
     24  C15       10.3220   36.0500   60.7440 C.ar    0  <0>0        0.0005
     25  C14       10.3690   35.0170   59.8240 C.ar    0  <0>0        0.0007
     26  C13        9.6070   35.0780   58.6740 C.ar    0  <0>0        0.0116
@<TRIPOS>BOND
     1     3     2    1
     2    11    10    1
     3     8     7    1
     4     8     9    1
     5     2     1    1
     6     2     4    1
     7     7     1    1
     8    10     9   am
     9    10    13    1
    10    14    13    1
    11     1     6    2
    12     4     5    2
    13     9    12    2
    14    13    15    1
    15     6     5    2
    16    15    16    1
    17     5    20    1
    18    18    19    1
    19    18    17    1
    20    20    26   ar
    21    20    21   ar
    22    16    17    1
    23    26    25   ar
    24    23    21    1
    25    21    22   ar
    26    25    24   ar
    27    22    24   ar
