@<TRIPOS>MOLECULE
ZINC54665552_replica-1.pdb
 20 21 0 0 0
SMALL
GASTEIGER

@<TRIPOS>ATOM
      1  C6        -0.8410   29.1890   55.4200 C.3     0  <0>0        0.0105
      2  C7        -2.3710   29.1450   55.2130 C.3     0  <0>0        0.0324
      3  C8        -2.8410   30.5720   55.5740 C.3     0  <0>0        0.1422
      4  O1        -1.8150   31.0860   56.4520 O.3     0  <0>0       -0.3539
      5  C9        -0.5660   30.6370   55.8830 C.3     0  <0>0        0.1400
      6  C5        -0.4180   28.1920   56.5020 C.3     0  <0>0       -0.0789
      7  N1        -1.2050   28.4270   57.7200 N.4     0  <0>0        0.3864
      8  H10       -2.0310   28.9580   57.4890 H       0  <0>0       -0.0843
      9  H32       -0.6490   28.9430   58.3840 H       0  <0>0       -0.0843
     10  C2        -1.5970   27.1390   58.3050 C.3     0  <0>0       -0.0460
     11  C1        -1.3130   27.1530   59.8080 C.3     0  <0>0       -0.0215
     12  C3        -0.7960   26.0140   57.6450 C.3     0  <0>0       -0.0215
     13  C4        -3.0910   26.9050   58.0700 C.3     0  <0>0       -0.0215
     14  C10       -0.1110   28.8970   54.1090 C.3     0  <0>0        0.0004
     15  C11       -0.7440   27.6770   53.4330 C.3     0  <0>0        0.0000
     16  C16       -1.1210   28.0310   51.9930 C.3     0  <0>0        0.0000
     17  C15       -1.7540   26.8130   51.3180 C.3     0  <0>0        0.0000
     18  C14       -0.7540   25.6550   51.3140 C.3     0  <0>0        0.0000
     19  C13       -0.3760   25.3020   52.7540 C.3     0  <0>0        0.0000
     20  C12        0.2560   26.5200   53.4290 C.3     0  <0>0        0.0000
@<TRIPOS>BOND
     1    18    17    1
     2    18    19    1
     3    17    16    1
     4    16    15    1
     5    19    20    1
     6    20    15    1
     7    15    14    1
     8    14     1    1
     9     2     1    1
    10     2     3    1
    11     1     5    1
    12     1     6    1
    13     3     4    1
    14     5     4    1
    15     6     7    1
    16     8     7    1
    17    12    10    1
    18     7    10    1
    19     7     9    1
    20    13    10    1
    21    10    11    1
