@<TRIPOS>MOLECULE
ZINC36584848_replica-1.pdb
 26 26 0 0 0
SMALL
GASTEIGER

@<TRIPOS>ATOM
      1  C6         5.1690   34.3970   56.6530 C.3     0  <0>0        0.1744
      2  C5         5.2770   32.9940   57.1930 C.2     0  <0>0       -0.0020
      3  C4         6.3270   32.2630   56.9150 C.2     0  <0>0       -0.0286
      4  C3         6.4330   30.8600   57.4550 C.3     0  <0>0        0.0258
      5  C2         7.7620   30.6980   58.1960 C.3     0  <0>0        0.0047
      6  C1         8.4850   32.0460   58.2440 C.3     0  <0>0        0.0004
      7  C7         3.8320   34.9800   57.0300 C.2     0  <0>0        0.2448
      8  O1         3.5650   36.1250   56.7320 O.2     0  <0>0       -0.2729
      9  N1         2.9330   34.2310   57.6980 N.am    0  <0>0       -0.3059
     10  H11        3.1480   33.3150   57.9360 H       0  <0>0        0.1494
     11  C8         1.6340   34.7980   58.0650 C.3     0  <0>0        0.0569
     12  C9         0.8920   35.2350   56.8010 C.3     0  <0>0        0.0196
     13  C10        0.8070   33.7430   58.8030 C.3     0  <0>0        0.0196
     14  C11        1.8460   36.0090   58.9770 C.3     0  <0>0        0.0196
     15  N2         6.2390   35.2220   57.2170 N.am    0  <0>0       -0.2668
     16  C12        6.3680   35.3400   58.5530 C.2     0  <0>0        0.2842
     17  O2         5.5480   34.8260   59.2910 O.2     0  <0>0       -0.2665
     18  C13        7.4960   36.0870   59.1180 C.ar    0  <0>0        0.1987
     19  O3         7.5240   37.4120   59.3670 O.2     0  <0>0       -0.4458
     20  C16        8.7140   37.7420   59.8850 C.ar    0  <0>0        0.1798
     21  C15        9.4760   36.6290   59.9700 C.ar    0  <0>0        0.0440
     22  C14        8.7030   35.5630   59.4810 C.ar    0  <0>0        0.0455
     23  C17        7.1710   35.9200   56.3270 C.3     0  <0>0        0.0615
     24  C18        7.1400   37.4190   56.6290 C.3     0  <0>0        0.0199
     25  C19        8.5870   35.3850   56.5510 C.3     0  <0>0        0.0199
     26  C20        6.7610   35.6840   54.8730 C.3     0  <0>0        0.0199
@<TRIPOS>BOND
     1    26    23    1
     2    23    25    1
     3    23    24    1
     4    23    15    1
     5     1     7    1
     6     1     2    1
     7     1    15    1
     8     8     7    2
     9    12    11    1
    10     3     2    2
    11     3     4    1
    12     7     9   am
    13    15    16   am
    14     4     5    1
    15     9    10    1
    16     9    11    1
    17    11    13    1
    18    11    14    1
    19     5     6    1
    20    16    18    1
    21    16    17    2
    22    18    19   ar
    23    18    22   ar
    24    19    20   ar
    25    22    21   ar
    26    20    21   ar
