@<TRIPOS>MOLECULE
ZINC58661199_replica-1.pdb
 23 24 0 0 0
SMALL
GASTEIGER

@<TRIPOS>ATOM
      1  C5        12.2680   32.9700   62.7810 C.ar    0  <0>0        0.0315
      2  C6        12.5450   34.2650   62.3830 C.ar    0  <0>0        0.0143
      3  C7        11.6520   34.9490   61.5820 C.ar    0  <0>0        0.0155
      4  C8        10.4730   34.3340   61.1760 C.ar    0  <0>0        0.0449
      5  C9        10.1980   33.0330   61.5780 C.ar    0  <0>0        0.0155
      6  C10       11.1000   32.3530   62.3750 C.ar    0  <0>0        0.0143
      7  N2         9.5670   35.0220   60.3680 N.pl3   0  <0>0       -0.3306
      8  H16        8.9740   34.5310   59.7770 H       0  <0>0        0.1471
      9  C11        9.5090   36.4850   60.4120 C.3     0  <0>0        0.0919
     10  C12        8.6090   36.9260   61.5690 C.3     0  <0>0        0.0261
     11  C13        8.9480   37.0050   59.1130 C.ar    0  <0>0       -0.0044
     12  C18        8.7730   36.1470   58.0420 C.ar    0  <0>0       -0.0004
     13  C17        8.2550   36.6220   56.8540 C.ar    0  <0>0        0.0294
     14  C16        7.9190   37.9600   56.7300 C.ar    0  <0>0        0.1401
     15  C15        8.0990   38.8190   57.8000 C.ar    0  <0>0        0.0294
     16  F1         7.4170   38.4260   55.5650 F       0  <0>0       -0.2042
     17  C14        8.6130   38.3420   58.9910 C.ar    0  <0>0       -0.0004
     18  N1        13.1760   32.2810   63.5920 N.pl3   0  <0>0       -0.3758
     19  H24       12.9740   32.4760   64.5620 H       0  <0>0        0.1277
     20  C2        13.0540   30.8380   63.3470 C.3     0  <0>0        0.0726
     21  C1        12.6820   30.1300   64.6520 C.3     0  <0>0        0.0215
     22  C3        14.5420   32.7180   63.2780 C.3     0  <0>0        0.0726
     23  C4        15.1950   33.2950   64.5360 C.3     0  <0>0        0.0215
@<TRIPOS>BOND
     1    16    14    1
     2    14    13   ar
     3    14    15   ar
     4    13    12   ar
     5    15    17   ar
     6    12    11   ar
     7    17    11   ar
     8    11     9    1
     9     8     7    1
    10     7     9    1
    11     7     4    1
    12     9    10    1
    13     4     5   ar
    14     4     3   ar
    15     5     6   ar
    16     3     2   ar
    17     6     1   ar
    18     2     1   ar
    19     1    18    1
    20    22    18    1
    21    22    23    1
    22    20    18    1
    23    20    21    1
    24    18    19    1
