@<TRIPOS>MOLECULE
ZINC12976069_replica-1.pdb
 28 30 0 0 0
SMALL
GASTEIGER

@<TRIPOS>ATOM
      1  N1        -0.8510   27.0830   56.9890 N.am    0  <0>0       -0.2988
      2  C11       -2.0190   27.7450   57.1020 C.2     0  <0>0        0.2716
      3  O1        -2.8020   27.4510   57.9800 O.2     0  <0>0       -0.2706
      4  H14       -0.2250   27.3190   56.2870 H       0  <0>0        0.1498
      5  C12       -2.3530   28.8530   56.1370 C.3     0  <0>0        0.3020
      6  N2        -1.1190   29.5160   55.7060 N.am    0  <0>0       -0.1056
      7  C14       -0.3430   30.3690   56.4360 C.1     0  <0>0        0.1801
      8  N4         0.6650   30.7280   55.6720 N.2     0  <0>0        0.0474
      9  S1        -0.6340   30.8890   58.0940 S.2     0  <0>0        0.0561
     10  N3         0.5670   30.1670   54.5200 N.2     0  <0>0        0.0925
     11  C13       -0.5060   29.4120   54.4790 C.2     0  <0>0        0.3643
     12  C15       -0.9670   28.6020   53.3310 C.ar    0  <0>0        0.0854
     13  C20       -0.4880   27.3040   53.1520 C.ar    0  <0>0        0.0032
     14  C19       -0.9280   26.5520   52.0820 C.ar    0  <0>0       -0.0216
     15  C18       -1.8310   27.0870   51.1810 C.ar    0  <0>0       -0.0042
     16  C21       -0.4170   25.1470   51.8900 C.3     0  <0>0        0.0310
     17  C17       -2.3050   28.3760   51.3490 C.ar    0  <0>0       -0.0001
     18  C16       -1.8780   29.1370   52.4180 C.ar    0  <0>0        0.0075
     19  C4        -0.5270   26.0050   57.9270 C.3     0  <0>0        0.0942
     20  C3         0.6350   26.4410   58.8220 C.3     0  <0>0        0.0241
     21  C2         0.1750   26.4630   60.2810 C.3     0  <0>0        0.0020
     22  C1         0.5840   25.1570   60.9650 C.3     0  <0>0        0.0001
     23  C5        -0.1330   24.7710   57.1570 C.ar    0  <0>0       -0.0045
     24  C10        0.3790   24.8880   55.8790 C.ar    0  <0>0       -0.0027
     25  C9         0.7450   23.7570   55.1740 C.ar    0  <0>0       -0.0003
     26  C8         0.5880   22.5070   55.7440 C.ar    0  <0>0       -0.0000
     27  C7         0.0710   22.3890   57.0200 C.ar    0  <0>0       -0.0003
     28  C6        -0.2900   23.5210   57.7270 C.ar    0  <0>0       -0.0027
@<TRIPOS>BOND
     1    15    17   ar
     2    15    14   ar
     3    17    18   ar
     4    16    14    1
     5    14    13   ar
     6    18    12   ar
     7    13    12   ar
     8    12    11    1
     9    11    10    2
    10    11     6    1
    11    10     8    1
    12    25    26   ar
    13    25    24   ar
    14     8     7    2
    15     6     5    1
    16     6     7    1
    17    26    27   ar
    18    24    23   ar
    19     5     2    1
    20     4     1    1
    21     7     9    2
    22     1     2   am
    23     1    19    1
    24    27    28   ar
    25     2     3    2
    26    23    28   ar
    27    23    19    1
    28    19    20    1
    29    20    21    1
    30    21    22    1
