@<TRIPOS>MOLECULE
ZINC37054549_replica-1.pdb
 22 23 0 0 0
SMALL
GASTEIGER

@<TRIPOS>ATOM
      1  C9        14.1670   33.1140   62.9070 C.ar    0  <0>0        0.0450
      2  C10       13.6140   31.9010   63.3040 C.ar    0  <0>0        0.0166
      3  C11       12.2660   31.6590   63.1250 C.ar    0  <0>0        0.0311
      4  C12       11.4560   32.6200   62.5500 C.ar    0  <0>0        0.1464
      5  C13       12.0030   33.8430   62.1470 C.ar    0  <0>0        0.1042
      6  C14       13.3650   34.0880   62.3340 C.ar    0  <0>0        0.0230
      7  F1        10.1380   32.3800   62.3760 F       0  <0>0       -0.2040
      8  N1        15.5320   33.3530   63.0900 N.pl3   0  <0>0       -0.3340
      9  H12       16.1760   33.0050   62.4540 H       0  <0>0        0.1468
     10  C2        15.9910   34.1320   64.2430 C.3     0  <0>0        0.0695
     11  C1        16.1140   33.2150   65.4620 C.3     0  <0>0        0.0212
     12  C3        17.3550   34.7510   63.9320 C.3     0  <0>0        0.0274
     13  C4        18.1940   34.8060   65.2100 C.3     0  <0>0        0.0662
     14  C5        19.1580   35.9610   65.1290 C.ar    0  <0>0        0.1230
     15  O1        19.6910   36.4610   64.0020 O.2     0  <0>0       -0.4547
     16  C8        20.5030   37.4870   64.3060 C.ar    0  <0>0        0.1791
     17  C7        20.5030   37.6470   65.6420 C.ar    0  <0>0        0.0434
     18  C6        19.6360   36.6630   66.1720 C.ar    0  <0>0        0.0362
     19  C15       11.1430   34.8730   61.5320 C.2     0  <0>0        0.3436
     20  O2        11.1390   36.0040   61.9750 O.2     0  <0>0       -0.2448
     21  O3        10.3630   34.5580   60.4790 O.3     0  <0>0       -0.4413
     22  C16        9.9460   35.6360   59.6370 C.3     0  <0>0        0.2560
@<TRIPOS>BOND
     1    22    21    1
     2    21    19    1
     3    19    20    2
     4    19     5    1
     5     5     6   ar
     6     5     4   ar
     7     6     1   ar
     8     7     4    1
     9     9     8    1
    10     4     3   ar
    11     1     8    1
    12     1     2   ar
    13     8    10    1
    14     3     2   ar
    15    12    10    1
    16    12    13    1
    17    15    16   ar
    18    15    14   ar
    19    10    11    1
    20    16    17   ar
    21    14    13    1
    22    14    18   ar
    23    17    18   ar
