@<TRIPOS>MOLECULE
ZINC13590879_replica-1.pdb
 31 35 0 0 0
SMALL
GASTEIGER

@<TRIPOS>ATOM
      1  N1         6.9510   32.3280   58.0000 N.am    0  <0>0       -0.2051
      2  C8         7.8040   33.1030   58.7210 C.2     0  <0>0        0.2359
      3  O2         8.5290   32.7410   59.6230 O.2     0  <0>0       -0.2741
      4  C9         7.6710   34.4910   58.1770 C.3     0  <0>0        0.0947
      5  C10        8.9080   35.3620   58.1190 C.3     0  <0>0        0.0530
      6  C11        8.5750   36.5410   57.2280 C.2     0  <0>0       -0.0258
      7  C12        7.5830   36.5700   56.3900 C.2     0  <0>0       -0.0258
      8  C13        6.6270   35.4190   56.1570 C.3     0  <0>0        0.0530
      9  C14        7.3000   34.1730   56.6950 C.3     0  <0>0        0.0947
     10  C15        6.4640   32.9440   56.8920 C.2     0  <0>0        0.2359
     11  O3         5.5400   32.5740   56.2010 O.2     0  <0>0       -0.2741
     12  C7         6.6020   31.0190   58.3690 C.ar    0  <0>0        0.0945
     13  C2         5.5250   30.7980   59.2240 C.ar    0  <0>0        0.1526
     14  C3         5.1850   29.5040   59.5850 C.ar    0  <0>0        0.0382
     15  C4         5.9150   28.4360   59.0970 C.ar    0  <0>0        0.0032
     16  C5         6.9840   28.6550   58.2490 C.ar    0  <0>0        0.0015
     17  C6         7.3330   29.9430   57.8880 C.ar    0  <0>0        0.0184
     18  O1         4.8090   31.8500   59.7050 O.3     0  <0>0       -0.4702
     19  C1         3.5400   32.1010   59.1000 C.3     0  <0>0        0.2525
     20  C16        5.3360   35.6650   56.8940 C.ar    0  <0>0       -0.0180
     21  C21        5.3470   35.8590   58.2630 C.ar    0  <0>0       -0.0039
     22  C20        4.1620   36.0850   58.9380 C.ar    0  <0>0       -0.0003
     23  C19        2.9670   36.1190   58.2450 C.ar    0  <0>0       -0.0000
     24  C18        2.9550   35.9250   56.8770 C.ar    0  <0>0       -0.0003
     25  C17        4.1410   35.7030   56.2000 C.ar    0  <0>0       -0.0039
     26  C22        9.2660   35.8460   59.5000 C.ar    0  <0>0       -0.0180
     27  C27       10.4500   35.4440   60.0880 C.ar    0  <0>0       -0.0039
     28  C26       10.7770   35.8870   61.3560 C.ar    0  <0>0       -0.0003
     29  C25        9.9210   36.7330   62.0350 C.ar    0  <0>0       -0.0000
     30  C24        8.7370   37.1360   61.4470 C.ar    0  <0>0       -0.0003
     31  C23        8.4110   36.6960   60.1770 C.ar    0  <0>0       -0.0039
@<TRIPOS>BOND
     1     8     7    1
     2     8     9    1
     3     8    20    1
     4    25    24   ar
     5    25    20   ar
     6    11    10    2
     7     7     6    2
     8     9    10    1
     9     9     4    1
    10    24    23   ar
    11    10     1   am
    12    20    21   ar
    13     6     5    1
    14    17    16   ar
    15    17    12   ar
    16     1    12    1
    17     1     2   am
    18     5     4    1
    19     5    26    1
    20     4     2    1
    21    23    22   ar
    22    16    15   ar
    23    21    22   ar
    24    12    13   ar
    25     2     3    2
    26    15    14   ar
    27    19    18    1
    28    13    14   ar
    29    13    18    1
    30    26    27   ar
    31    26    31   ar
    32    27    28   ar
    33    31    30   ar
    34    28    29   ar
    35    30    29   ar
