@<TRIPOS>MOLECULE
ZINC49521303_replica-1.pdb
 23 24 0 0 0
SMALL
GASTEIGER

@<TRIPOS>ATOM
      1  C7         7.6480   35.2270   59.9350 C.3     0  <0>0        0.0953
      2  N2         6.4070   35.9640   59.6840 N.am    0  <0>0       -0.2886
      3  C6         5.3960   35.3710   59.0180 C.2     0  <0>0        0.3007
      4  N1         4.2530   36.0480   58.7880 N.am    0  <0>0       -0.2906
      5  O1         5.5140   34.2270   58.6250 O.2     0  <0>0       -0.2528
      6  H12        4.1580   36.9610   59.1030 H       0  <0>0        0.1509
      7  H13        6.3120   36.8750   59.9980 H       0  <0>0        0.1510
      8  C3         3.1540   35.4050   58.0630 C.3     0  <0>0        0.0730
      9  C2         1.9110   35.3630   58.9550 C.3     0  <0>0        0.0196
     10  C1         0.6910   34.9900   58.1130 C.3     0  <0>0        0.0017
     11  C4         2.8450   36.2010   56.7940 C.3     0  <0>0        0.0196
     12  C5         3.9440   35.9550   55.7590 C.3     0  <0>0        0.0017
     13  C8         8.8170   35.9570   59.2680 C.3     0  <0>0        0.0426
     14  C13       10.0500   35.0500   59.2690 C.3     0  <0>0        0.0062
     15  C12       10.4240   34.6980   60.7100 C.3     0  <0>0        0.0004
     16  C11       10.7340   35.9810   61.4850 C.3     0  <0>0        0.0000
     17  C10        9.5000   36.8860   61.4840 C.3     0  <0>0        0.0004
     18  C9         9.1260   37.2390   60.0440 C.3     0  <0>0        0.0062
     19  C14        8.4500   36.3040   57.8490 C.ar    0  <0>0        0.0082
     20  S1         8.2360   35.2210   56.4460 S.2     0  <0>0       -0.0907
     21  C17        7.8220   36.4620   55.2310 C.ar    0  <0>0        0.0351
     22  C16        7.8790   37.6020   55.9630 C.ar    0  <0>0        0.0072
     23  C15        8.2010   37.5210   57.3050 C.ar    0  <0>0        0.0027
@<TRIPOS>BOND
     1    21    22   ar
     2    21    20   ar
     3    12    11    1
     4    22    23   ar
     5    20    19   ar
     6    11     8    1
     7    23    19   ar
     8    19    13    1
     9     8     4    1
    10     8     9    1
    11    10     9    1
    12     5     3    2
    13     4     3   am
    14     4     6    1
    15     3     2   am
    16    13    14    1
    17    13     1    1
    18    13    18    1
    19    14    15    1
    20     2     1    1
    21     2     7    1
    22    18    17    1
    23    15    16    1
    24    17    16    1
