@<TRIPOS>MOLECULE
ZINC49903159_replica-1.pdb
 24 25 0 0 0
SMALL
GASTEIGER

@<TRIPOS>ATOM
      1  C10       -2.3650   30.8120   54.7150 C.3     0  <0>0        0.0550
      2  C9        -1.0700   30.3830   54.0200 C.3     0  <0>0        0.0899
      3  N1        -1.3540   29.2840   53.0940 N.pl3   0  <0>0       -0.3328
      4  H11       -1.9250   29.4350   52.3240 H       0  <0>0        0.1468
      5  C6        -0.8020   28.0210   53.3190 C.ar    0  <0>0        0.0403
      6  C5        -0.1380   27.7540   54.5100 C.ar    0  <0>0        0.0140
      7  C4         0.4060   26.5040   54.7290 C.ar    0  <0>0        0.0009
      8  C3         0.2910   25.5190   53.7660 C.ar    0  <0>0       -0.0045
      9  C2        -0.3710   25.7820   52.5800 C.ar    0  <0>0       -0.0246
     10  C1        -0.4940   24.7040   51.5330 C.3     0  <0>0        0.0307
     11  C7        -0.9120   27.0310   52.3520 C.ar    0  <0>0       -0.0127
     12  C8        -1.6280   27.3180   51.0560 C.3     0  <0>0        0.0320
     13  C11       -2.0770   31.1190   56.1860 C.3     0  <0>0        0.1344
     14  C12       -1.9320   29.8280   56.9500 C.ar    0  <0>0        0.0043
     15  C17       -0.9040   29.6770   57.8620 C.ar    0  <0>0       -0.0023
     16  C16       -0.7730   28.4950   58.5650 C.ar    0  <0>0       -0.0045
     17  C15       -1.6640   27.4600   58.3510 C.ar    0  <0>0       -0.0225
     18  C14       -2.6890   27.6100   57.4360 C.ar    0  <0>0       -0.0045
     19  C13       -2.8230   28.7940   56.7350 C.ar    0  <0>0       -0.0023
     20  C18       -1.5200   26.1700   59.1160 C.3     0  <0>0        0.0224
     21  C19       -2.8630   25.7990   59.7480 C.3     0  <0>0        0.0047
     22  C20       -1.0820   25.0580   58.1610 C.3     0  <0>0        0.0047
     23  O1        -0.8650   31.8710   56.2880 O.3     0  <0>0       -0.3800
     24  H27       -0.9980   32.8070   56.4900 H       0  <0>0        0.2108
@<TRIPOS>BOND
     1    12    11    1
     2    10     9    1
     3     4     3    1
     4    11     9   ar
     5    11     5   ar
     6     9     8   ar
     7     3     5    1
     8     3     2    1
     9     5     6   ar
    10     8     7   ar
    11     2     1    1
    12     6     7   ar
    13     1    13    1
    14    13    23    1
    15    13    14    1
    16    23    24    1
    17    19    14   ar
    18    19    18   ar
    19    14    15   ar
    20    18    17   ar
    21    15    16   ar
    22    22    20    1
    23    17    16   ar
    24    17    20    1
    25    20    21    1
