@<TRIPOS>MOLECULE
ZINC45158317_replica-1.pdb
 28 30 0 0 0
SMALL
GASTEIGER

@<TRIPOS>ATOM
      1  C4         0.0780   29.0070   57.3660 C.2     0  <0>0        0.0447
      2  C5        -1.0350   28.2860   57.6510 C.3     0  <0>0        0.0700
      3  C3         0.4920   30.1060   58.2540 C.2     0  <0>0        0.0370
      4  C2         0.0690   31.3530   58.0180 C.2     0  <0>0       -0.0182
      5  C1        -0.7390   31.6530   56.7820 C.3     0  <0>0        0.0313
      6  S1         1.5450   29.7790   59.6290 S.3     0  <0>0       -0.0861
      7  C17        0.8690   30.7590   60.9270 C.ar    0  <0>0        0.0295
      8  C22       -0.1250   30.2400   61.7470 C.ar    0  <0>0        0.0065
      9  C21       -0.6490   31.0090   62.7680 C.ar    0  <0>0        0.0005
     10  C20       -0.1930   32.3000   62.9650 C.ar    0  <0>0        0.0000
     11  C19        0.7920   32.8230   62.1470 C.ar    0  <0>0        0.0005
     12  C18        1.3240   32.0570   61.1290 C.ar    0  <0>0        0.0065
     13  N1         0.8290   28.7070   56.2330 N.2     0  <0>0       -0.3426
     14  H10        1.7980   28.7360   56.2720 H       0  <0>0        0.1670
     15  C8         0.1940   28.3670   55.0530 C.ar    0  <0>0        0.1201
     16  N2        -0.6190   29.2880   54.4510 N.ar    0  <0>0       -0.3079
     17  C16       -1.2610   29.0160   53.2950 C.ar    0  <0>0        0.2586
     18  H1        -0.7340   30.1600   54.8620 H       0  <0>0        0.1703
     19  C15       -1.0860   27.6960   52.6840 C.ar    0  <0>0        0.0561
     20  O1        -1.9760   29.8510   52.7720 O.2     0  <0>0       -0.2672
     21  C10       -0.2430   26.7580   53.3280 C.ar    0  <0>0        0.0075
     22  C14       -1.7220   27.3470   51.4910 C.ar    0  <0>0        0.0047
     23  C9         0.3950   27.1320   54.5350 C.ar    0  <0>0        0.0351
     24  C11       -0.0620   25.4920   52.7590 C.ar    0  <0>0        0.0002
     25  C12       -0.7000   25.1800   51.5930 C.ar    0  <0>0        0.0000
     26  C13       -1.5260   26.1030   50.9610 C.ar    0  <0>0        0.0002
     27  C6        -1.7590   28.5230   58.9000 C.2     0  <0>0       -0.0199
     28  C7        -2.0410   27.5020   59.7110 C.2     0  <0>0       -0.0045
@<TRIPOS>BOND
     1    26    22   ar
     2    26    25   ar
     3    22    19   ar
     4    25    24   ar
     5    19    17   ar
     6    19    21   ar
     7    24    21   ar
     8    20    17    2
     9    17    16   ar
    10    21    23   ar
    11    16    18    1
    12    16    15   ar
    13    23    15   ar
    14    15    13    1
    15    13    14    1
    16    13     1    2
    17     5     4    1
    18     1     2    1
    19     1     3    1
    20     2    27    1
    21     4     3    2
    22     3     6    1
    23    27    28    2
    24     6     7    1
    25     7    12   ar
    26     7     8   ar
    27    12    11   ar
    28     8     9   ar
    29    11    10   ar
    30     9    10   ar
