@<TRIPOS>MOLECULE
ZINC21259903_replica-1.pdb
 35 39 0 0 0
SMALL
GASTEIGER

@<TRIPOS>ATOM
      1  C9         9.6370   34.5040   60.7200 C.3     0  <0>0        0.0356
      2  C10       10.0300   34.7300   59.2620 C.3     0  <0>0        0.0458
      3  C11        8.8270   35.2110   58.4690 C.2     0  <0>0        0.0262
      4  C12        7.8800   35.9650   59.0530 C.2     0  <0>0        0.0436
      5  C13        6.6470   36.5180   58.3800 C.3     0  <0>0        0.1186
      6  N1         6.6470   36.4050   56.9370 N.pl3   0  <0>0       -0.3262
      7  C14        6.6280   35.1580   56.3160 C.ar    0  <0>0        0.0586
      8  C15        5.5520   34.7500   55.5430 C.ar    0  <0>0        0.0156
      9  C16        5.5580   33.4830   54.9850 C.ar    0  <0>0        0.0013
     10  C17        6.6260   32.6290   55.1980 C.ar    0  <0>0        0.0014
     11  C18        7.7100   33.0410   55.9540 C.ar    0  <0>0        0.0158
     12  C19        7.7150   34.3150   56.4940 C.ar    0  <0>0        0.0614
     13  N2         8.8170   34.8340   57.1650 N.pl3   0  <0>0       -0.3150
     14  C28        7.9870   36.3060   60.4220 C.2     0  <0>0        0.1722
     15  O2         7.1260   37.0040   60.9220 O.2     0  <0>0       -0.2916
     16  C29        9.1250   35.8370   61.2790 C.3     0  <0>0        0.0736
     17  H14        6.6620   37.3120   56.3150 H       0  <0>0        0.1474
     18  H19        9.7280   34.9290   56.5570 H       0  <0>0        0.1520
     19  C20        5.4430   35.7870   58.9160 C.ar    0  <0>0       -0.0001
     20  C25        5.6070   34.6010   59.6090 C.ar    0  <0>0        0.0008
     21  C24        4.5050   33.9330   60.1070 C.ar    0  <0>0        0.0366
     22  C23        3.2330   34.4450   59.9000 C.ar    0  <0>0        0.1385
     23  C22        3.0700   35.6340   59.2040 C.ar    0  <0>0        0.0366
     24  C21        4.1760   36.3020   58.7130 C.ar    0  <0>0        0.0008
     25  O1         2.1470   33.7860   60.3830 O.3     0  <0>0       -0.4755
     26  C26        0.8740   34.4130   60.2020 C.3     0  <0>0        0.2055
     27  C27       -0.0560   34.0170   61.3500 C.3     0  <0>0        0.0512
     28  C6        10.8380   34.0480   61.5090 C.ar    0  <0>0       -0.0217
     29  C5        11.9150   34.8970   61.6790 C.ar    0  <0>0       -0.0046
     30  C4        13.0160   34.4800   62.4030 C.ar    0  <0>0       -0.0046
     31  C3        13.0410   33.2130   62.9570 C.ar    0  <0>0       -0.0222
     32  C8        11.9620   32.3650   62.7870 C.ar    0  <0>0       -0.0046
     33  C7        10.8600   32.7840   62.0670 C.ar    0  <0>0       -0.0046
     34  C2        14.2420   32.7580   63.7440 C.3     0  <0>0        0.0264
     35  C1        15.3940   33.7410   63.5300 C.3     0  <0>0        0.0050
@<TRIPOS>BOND
     1     9    10   ar
     2     9     8   ar
     3    10    11   ar
     4     8     7   ar
     5    11    12   ar
     6    17     6    1
     7     7    12   ar
     8     7     6    1
     9    12    13    1
    10    18    13    1
    11     6     5    1
    12    13     3    1
    13     5    19    1
    14     5     4    1
    15     3     4    2
    16     3     2    1
    17    24    19   ar
    18    24    23   ar
    19    19    20   ar
    20     4    14    1
    21    23    22   ar
    22     2     1    1
    23    20    21   ar
    24    22    21   ar
    25    22    25    1
    26    26    25    1
    27    26    27    1
    28    14    15    2
    29    14    16    1
    30     1    16    1
    31     1    28    1
    32    28    29   ar
    33    28    33   ar
    34    29    30   ar
    35    33    32   ar
    36    30    31   ar
    37    32    31   ar
    38    31    34    1
    39    35    34    1
