@<TRIPOS>MOLECULE
ZINC36953436_replica-1.pdb
 22 23 0 0 0
SMALL
GASTEIGER

@<TRIPOS>ATOM
      1  N1         9.0750   37.3430   60.1860 N.pl3   0  <0>0       -0.3305
      2  H15        8.6800   38.0930   60.6560 H       0  <0>0        0.1471
      3  C8         9.9810   36.5060   60.8400 C.ar    0  <0>0        0.0448
      4  C7        10.6260   36.9430   61.9910 C.ar    0  <0>0        0.0140
      5  C6        11.5210   36.1120   62.6360 C.ar    0  <0>0       -0.0030
      6  C5        11.7770   34.8480   62.1380 C.ar    0  <0>0       -0.0224
      7  C10       11.1410   34.4120   60.9890 C.ar    0  <0>0       -0.0030
      8  C9        10.2400   35.2350   60.3430 C.ar    0  <0>0        0.0140
      9  C3        12.7540   33.9450   62.8450 C.3     0  <0>0        0.0223
     10  C4        14.1120   34.0150   62.1450 C.3     0  <0>0        0.0047
     11  C2        12.2360   32.5050   62.8080 C.3     0  <0>0        0.0044
     12  C1        13.3090   31.5630   63.3590 C.3     0  <0>0        0.0003
     13  C11        8.7210   37.0880   58.7870 C.3     0  <0>0        0.0963
     14  C12        8.6550   38.4140   58.0270 C.3     0  <0>0        0.0262
     15  C13        7.3790   36.4050   58.7260 C.ar    0  <0>0        0.0503
     16  C18        7.2400   35.2080   58.0450 C.ar    0  <0>0        0.1398
     17  C17        6.0080   34.5800   57.9940 C.ar    0  <0>0        0.0295
     18  F1         8.3090   34.6500   57.4350 F       0  <0>0       -0.2044
     19  C16        4.9130   35.1530   58.6120 C.ar    0  <0>0        0.0046
     20  C15        5.0480   36.3510   59.2870 C.ar    0  <0>0        0.0295
     21  C14        6.2810   36.9790   59.3450 C.ar    0  <0>0        0.1398
     22  F2         6.4130   38.1500   60.0050 F       0  <0>0       -0.2044
@<TRIPOS>BOND
     1    18    16    1
     2    17    16   ar
     3    17    19   ar
     4    14    13    1
     5    16    15   ar
     6    19    20   ar
     7    15    13    1
     8    15    21   ar
     9    13     1    1
    10    20    21   ar
    11    21    22    1
    12     1     2    1
    13     1     3    1
    14     8     3   ar
    15     8     7   ar
    16     3     4   ar
    17     7     6   ar
    18     4     5   ar
    19     6     5   ar
    20     6     9    1
    21    10     9    1
    22    11     9    1
    23    11    12    1
