@<TRIPOS>MOLECULE
ZINC48825336_replica-1.pdb
 21 21 0 0 0
SMALL
GASTEIGER

@<TRIPOS>ATOM
      1  C7         8.6230   37.1910   59.1870 C.3     0  <0>0        0.0944
      2  C8         7.2970   37.3690   59.9290 C.3     0  <0>0        0.0262
      3  N1         8.3950   36.4320   57.9550 N.am    0  <0>0       -0.2987
      4  C6         8.3470   37.0700   56.7680 C.2     0  <0>0        0.2462
      5  O1         8.4930   38.2780   56.7210 O.2     0  <0>0       -0.2701
      6  H9         8.2790   35.4700   57.9930 H       0  <0>0        0.1500
      7  C5         8.1200   36.3120   55.5390 C.2     0  <0>0        0.0577
      8  C4         6.8610   36.1080   55.0930 C.2     0  <0>0        0.0043
      9  C3         5.7190   36.4920   55.9250 C.2     0  <0>0       -0.0044
     10  C2         4.5070   35.9990   55.6650 C.2     0  <0>0       -0.0258
     11  C1         4.3150   35.0440   54.5140 C.3     0  <0>0        0.0307
     12  C9         9.5950   36.4450   60.0650 C.ar    0  <0>0       -0.0045
     13  C14       10.0220   37.0040   61.2530 C.ar    0  <0>0       -0.0030
     14  C13       10.9100   36.3180   62.0600 C.ar    0  <0>0       -0.0046
     15  C12       11.3770   35.0760   61.6740 C.ar    0  <0>0       -0.0228
     16  C11       10.9530   34.5180   60.4820 C.ar    0  <0>0       -0.0046
     17  C10       10.0630   35.2030   59.6770 C.ar    0  <0>0       -0.0030
     18  C15       12.3480   34.3290   62.5520 C.3     0  <0>0        0.0189
     19  C16       12.5330   35.0890   63.8670 C.3     0  <0>0        0.0044
     20  C17       11.8000   32.9310   62.8440 C.3     0  <0>0        0.0044
     21  C18       13.6950   34.2100   61.8370 C.3     0  <0>0        0.0044
@<TRIPOS>BOND
     1    11    10    1
     2     8     7    2
     3     8     9    1
     4     7     4    1
     5    10     9    2
     6     5     4    2
     7     4     3   am
     8     3     6    1
     9     3     1    1
    10     1     2    1
    11     1    12    1
    12    17    12   ar
    13    17    16   ar
    14    12    13   ar
    15    16    15   ar
    16    13    14   ar
    17    15    14   ar
    18    15    18    1
    19    21    18    1
    20    18    20    1
    21    18    19    1
