@<TRIPOS>MOLECULE
ZINC37245430_replica-1.pdb
 22 24 0 0 0
SMALL
GASTEIGER

@<TRIPOS>ATOM
      1  C8         9.9480   35.5960   60.9960 C.3     0  <0>0        0.1270
      2  C9        10.3050   36.7440   61.9440 C.3     0  <0>0        0.0295
      3  N1        11.1620   34.8450   60.6620 N.pl3   0  <0>0       -0.3264
      4  H8        11.5730   34.9530   59.7910 H       0  <0>0        0.1472
      5  C6        11.7230   33.9720   61.5990 C.ar    0  <0>0        0.0724
      6  C5        11.0050   32.8640   62.0360 C.ar    0  <0>0        0.1531
      7  C4        11.5640   32.0030   62.9630 C.ar    0  <0>0        0.0306
      8  F1         9.7640   32.6280   61.5560 F       0  <0>0       -0.2029
      9  C3        12.8330   32.2440   63.4540 C.ar    0  <0>0       -0.0019
     10  C2        13.5490   33.3450   63.0210 C.ar    0  <0>0       -0.0205
     11  C1        14.9330   33.6020   63.5600 C.3     0  <0>0        0.0311
     12  C7        12.9950   34.2120   62.1000 C.ar    0  <0>0        0.0123
     13  C10        9.3410   36.1560   59.7350 C.ar    0  <0>0        0.1364
     14  O1         9.1690   37.4640   59.4790 O.2     0  <0>0       -0.4565
     15  C17        8.6040   37.6470   58.2690 C.ar    0  <0>0        0.1446
     16  C12        8.3890   36.3740   57.7120 C.ar    0  <0>0        0.0332
     17  C16        8.2300   38.7730   57.5480 C.ar    0  <0>0        0.0375
     18  C11        8.8870   35.4200   58.7110 C.ar    0  <0>0        0.0130
     19  C13        7.8050   36.2510   56.4530 C.ar    0  <0>0        0.0028
     20  C18        8.8900   33.9170   58.6050 C.3     0  <0>0        0.0340
     21  C14        7.4420   37.3730   55.7600 C.ar    0  <0>0        0.0002
     22  C15        7.6530   38.6310   56.3040 C.ar    0  <0>0        0.0031
@<TRIPOS>BOND
     1    21    22   ar
     2    21    19   ar
     3    22    17   ar
     4    19    16   ar
     5    17    15   ar
     6    16    15   ar
     7    16    18   ar
     8    15    14   ar
     9    20    18    1
    10    18    13   ar
    11    14    13   ar
    12    13     1    1
    13     4     3    1
    14     3     1    1
    15     3     5    1
    16     1     2    1
    17     8     6    1
    18     5     6   ar
    19     5    12   ar
    20     6     7   ar
    21    12    10   ar
    22     7     9   ar
    23    10     9   ar
    24    10    11    1
