@<TRIPOS>MOLECULE
ZINC03370846_replica-1.pdb
 24 26 0 0 0
SMALL
GASTEIGER

@<TRIPOS>ATOM
      1  C1         1.6070   32.2130   56.4260 C.3     0  <0>0        0.0337
      2  C2         0.4020   31.8580   57.2990 C.3     0  <0>0        0.1474
      3  C3         0.2460   30.3550   57.4070 C.2     0  <0>0        0.2526
      4  O1         1.0420   29.5680   57.8750 O.2     0  <0>0       -0.2723
      5  N1        -0.9600   30.0740   56.8760 N.am    0  <0>0       -0.2084
      6  C4        -1.5790   31.1790   56.4450 C.2     0  <0>0        0.3105
      7  O2        -2.6760   31.1790   55.9250 O.2     0  <0>0       -0.2521
      8  N2        -0.8520   32.2910   56.6590 N.am    0  <0>0       -0.2806
      9  H4        -1.1020   33.2000   56.4300 H       0  <0>0        0.1516
     10  C12        0.5400   32.4770   58.6670 C.ar    0  <0>0        0.0126
     11  C17        0.5480   33.8530   58.8060 C.ar    0  <0>0        0.0556
     12  C16        0.6680   34.4200   60.0630 C.ar    0  <0>0        0.0111
     13 Cl          0.4000   34.8670   57.4050 Cl      0  <0>0       -0.0825
     14  C15        0.7920   33.6120   61.1760 C.ar    0  <0>0        0.0008
     15  C14        0.7900   32.2360   61.0360 C.ar    0  <0>0       -0.0002
     16  C13        0.6630   31.6690   59.7820 C.ar    0  <0>0       -0.0014
     17  C5        -1.5200   28.7250   56.7740 C.3     0  <0>0        0.1299
     18  C6        -0.9650   28.0410   55.5510 C.ar    0  <0>0        0.0087
     19  C11       -0.1250   26.9500   55.6900 C.ar    0  <0>0        0.0553
     20  C10        0.3840   26.3230   54.5670 C.ar    0  <0>0        0.0111
     21 Cl          0.2890   26.3690   57.2720 Cl      0  <0>0       -0.0825
     22  C9         0.0510   26.7830   53.3070 C.ar    0  <0>0        0.0008
     23  C8        -0.7840   27.8760   53.1700 C.ar    0  <0>0       -0.0002
     24  C7        -1.2940   28.5030   54.2910 C.ar    0  <0>0       -0.0018
@<TRIPOS>BOND
     1    23    22   ar
     2    23    24   ar
     3    22    20   ar
     4    24    18   ar
     5    20    19   ar
     6    18    19   ar
     7    18    17    1
     8    19    21    1
     9     7     6    2
    10     1     2    1
    11     9     8    1
    12     6     8   am
    13     6     5   am
    14     8     2    1
    15    17     5    1
    16     5     3   am
    17     2     3    1
    18     2    10    1
    19    13    11    1
    20     3     4    2
    21    10    11   ar
    22    10    16   ar
    23    11    12   ar
    24    16    15   ar
    25    12    14   ar
    26    15    14   ar
