@<TRIPOS>MOLECULE
ZINC06513000_replica-1.pdb
 20 21 0 0 0
SMALL
GASTEIGER

@<TRIPOS>ATOM
      1  N2        10.1530   35.8870   60.1510 N.pl3   0  <0>0       -0.2125
      2  H4        10.2450   36.7670   60.5440 H       0  <0>0        0.1767
      3  N1        10.8530   34.8010   60.6930 N.2     0  <0>0       -0.1840
      4  C2        11.5260   34.9470   61.7940 C.2     0  <0>0        0.0767
      5  C1        11.5520   36.2830   62.4900 C.3     0  <0>0        0.0537
      6  C8        12.2620   33.8050   62.3640 C.ar    0  <0>0        0.0181
      7  C12       13.6430   33.8780   62.5900 C.ar    0  <0>0        0.0219
      8  C11       14.2900   32.7870   63.1320 C.ar    0  <0>0        0.0989
      9  N4        13.6290   31.6830   63.4240 N.ar    0  <0>0       -0.2423
     10  C10       12.3290   31.5690   63.2230 C.ar    0  <0>0        0.0989
     11  C9        11.6020   32.6120   62.6910 C.ar    0  <0>0        0.0219
     12  C3         9.3270   35.7000   59.0470 C.2     0  <0>0        0.1957
     13  N3         9.1930   34.4910   58.5250 N.2     0  <0>0       -0.3762
     14  C7         8.4140   34.2690   57.4820 C.2     0  <0>0        0.2002
     15  C6         7.7160   35.3030   56.8860 C.2     0  <0>0        0.0956
     16 Cl          8.2710   32.6610   56.8460 Cl      0  <0>0       -0.0471
     17  C5         7.8340   36.5880   57.4010 C.2     0  <0>0        0.0131
     18 Cl          6.7000   35.0000   55.5110 Cl      0  <0>0       -0.0789
     19  C4         8.6530   36.7880   58.4980 C.3     0  <0>0        0.1705
     20 Cl          8.8380   38.3720   59.1820 Cl      0  <0>0       -0.1010
@<TRIPOS>BOND
     1    18    15    1
     2    16    14    1
     3    15    17    2
     4    15    14    1
     5    17    19    1
     6    14    13    2
     7    19    12    1
     8    19    20    1
     9    13    12    2
    10    12     1    1
    11     1     2    1
    12     1     3    1
    13     3     4    2
    14     4     6    1
    15     4     5    1
    16     6     7   ar
    17     6    11   ar
    18     7     8   ar
    19    11    10   ar
    20     8     9   ar
    21    10     9   ar
