@<TRIPOS>MOLECULE
ZINC49534366_replica-1.pdb
 21 23 0 0 0
SMALL
GASTEIGER

@<TRIPOS>ATOM
      1  N2         8.4180   35.7030   59.0080 N.pl3   0  <0>0       -0.2776
      2  C8         8.3900   37.0620   59.0130 C.2     0  <0>0        0.1767
      3  N3         9.2090   37.5230   59.9130 N.2     0  <0>0       -0.3925
      4  C9         9.8180   36.4890   60.5480 C.2     0  <0>0        0.1333
      5  C10        9.3150   35.3070   59.9790 C.3     0  <0>0        0.1605
      6  C11        9.7600   34.0740   60.4390 C.2     0  <0>0        0.0602
      7  C12       10.6920   34.0150   61.4540 C.2     0  <0>0        0.0092
      8  C13       11.1880   35.1810   62.0210 C.2     0  <0>0        0.0029
      9  C14       10.7650   36.4110   61.5730 C.2     0  <0>0        0.0297
     10 Cl          9.1450   32.6100   59.7380 Cl      0  <0>0       -0.0848
     11  C6         7.6370   34.8220   58.1360 C.3     0  <0>0        0.0921
     12  C7         7.9700   35.1240   56.6740 C.3     0  <0>0        0.0229
     13  C3         6.1660   35.0530   58.3750 C.3     0  <0>0        0.1199
     14  C2         5.4110   34.7760   59.4680 C.2     0  <0>0        0.0989
     15  C1         6.0080   34.1410   60.6970 C.3     0  <0>0        0.0624
     16  N1         4.1320   35.0830   59.4030 N.2     0  <0>0       -0.4078
     17  C4         3.6170   35.6390   58.3340 C.2     0  <0>0        0.1344
     18  S1         4.9360   35.7680   57.2960 S.3     0  <0>0       -0.0791
     19  C5         2.1890   36.0570   58.0910 C.3     0  <0>0        0.0735
     20  C15        7.5350   37.9120   58.1080 C.3     0  <0>0        0.1691
     21 Cl          8.5870   38.7810   56.9300 Cl      0  <0>0       -0.1041
@<TRIPOS>BOND
     1    12    11    1
     2    21    20    1
     3    18    17    1
     4    18    13    1
     5    19    17    1
     6    20     2    1
     7    11    13    1
     8    11     1    1
     9    17    16    2
    10    13    14    1
    11     1     2    1
    12     1     5    1
    13     2     3    2
    14    16    14    2
    15    14    15    1
    16    10     6    1
    17     3     4    2
    18     5     6    1
    19     5     4    1
    20     6     7    2
    21     4     9    1
    22     7     8    1
    23     9     8    2
