@<TRIPOS>MOLECULE
ZINC40504706_replica-1.pdb
 20 22 0 0 0
SMALL
GASTEIGER

@<TRIPOS>ATOM
      1  C1         9.0810   37.1990   59.9860 C.ar    0  <0>0        0.0148
      2  C2         9.9420   36.9550   61.0360 C.ar    0  <0>0        0.0074
      3  C3        10.6770   35.7760   61.0750 C.ar    0  <0>0        0.0253
      4  C4        10.5450   34.8430   60.0540 C.ar    0  <0>0        0.0074
      5  C5         9.6840   35.0870   59.0030 C.ar    0  <0>0        0.0148
      6  C6         8.9500   36.2650   58.9650 C.ar    0  <0>0        0.0449
      7  N1         8.0760   36.5130   57.8990 N.pl3   0  <0>0       -0.3281
      8  H5         7.2330   36.9630   58.0580 H       0  <0>0        0.1472
      9  C7         8.4390   36.0920   56.5430 C.3     0  <0>0        0.1297
     10  C8         7.4300   35.0910   56.0410 C.2     0  <0>0        0.0632
     11  N2         7.5660   33.8000   56.2730 N.2     0  <0>0       -0.2644
     12  C10        6.6850   32.9340   55.8400 C.3     0  <0>0        0.1826
     13  S1         5.5640   33.8960   55.0350 S.3     0  <0>0       -0.1081
     14  C9         6.3430   35.4760   55.3250 C.3     0  <0>0        0.1019
     15  S2        11.7760   35.4660   62.4170 S.3     0  <0>0       -0.1145
     16  C11       12.5350   33.8720   62.0010 C.3     0  <0>0        0.0519
     17  C15       14.0320   33.8930   62.3560 C.3     0  <0>0        0.0111
     18  C14       14.2540   32.7810   63.4010 C.3     0  <0>0        0.0009
     19  C13       13.0810   31.7980   63.1650 C.3     0  <0>0        0.0009
     20  C12       11.8990   32.7480   62.8440 C.3     0  <0>0        0.0111
@<TRIPOS>BOND
     1    13    14    1
     2    13    12    1
     3    14    10    1
     4    12    11    1
     5    10    11    2
     6    10     9    1
     7     9     7    1
     8     7     8    1
     9     7     6    1
    10     6     5   ar
    11     6     1   ar
    12     5     4   ar
    13     1     2   ar
    14     4     3   ar
    15     2     3   ar
    16     3    15    1
    17    16    17    1
    18    16    15    1
    19    16    20    1
    20    17    18    1
    21    20    19    1
    22    19    18    1
