@<TRIPOS>MOLECULE
ZINC40847660_replica-1.pdb
 25 28 0 0 0
SMALL
GASTEIGER

@<TRIPOS>ATOM
      1  C1         0.3070   22.0830   56.0790 C.3     0  <0>0        0.0472
      2  C2         0.0010   23.3260   56.8750 C.2     0  <0>0        0.0256
      3  C3         0.2840   24.5350   56.3440 C.2     0  <0>0        0.0095
      4  C4        -0.0010   25.7020   57.0850 C.2     0  <0>0        0.0257
      5  C5        -0.5790   25.5720   58.3710 C.3     0  <0>0        0.1665
      6  C6        -0.8490   24.2790   58.8660 C.2     0  <0>0        0.0762
      7  S1        -1.5480   24.0810   60.4170 S.2     0  <0>0       -0.0385
      8  N1        -0.5610   23.2020   58.1100 N.am    0  <0>0       -0.3131
      9  H1        -0.7540   22.3160   58.4550 H       0  <0>0        0.1521
     10  C7        -0.7510   26.8830   58.8680 C.2     0  <0>0        0.3309
     11  O1        -1.2230   27.1760   59.9520 O.2     0  <0>0       -0.2489
     12  O2        -0.3060   27.7540   57.9440 O.3     0  <0>0       -0.4280
     13  C8         0.1550   27.0890   56.8550 C.2     0  <0>0        0.1272
     14  C9         0.6770   27.6580   55.7330 C.3     0  <0>0        0.0911
     15  C10       -0.1950   28.3700   54.8010 C.ar    0  <0>0       -0.0075
     16  C13       -0.6080   27.7620   53.5320 C.ar    0  <0>0        0.0060
     17  C12       -1.4500   28.5980   52.7760 C.ar    0  <0>0        0.0294
     18  C14       -0.2930   26.5010   52.9920 C.ar    0  <0>0        0.0371
     19  S2        -1.6030   30.0590   53.7660 S.2     0  <0>0       -0.0868
     20  C17       -1.9530   28.2100   51.5510 C.ar    0  <0>0        0.0096
     21  C11       -0.6530   29.6330   55.0790 C.ar    0  <0>0        0.0316
     22  C16       -1.6210   26.9720   51.0370 C.ar    0  <0>0        0.0374
     23  C15       -0.7940   26.1230   51.7660 C.ar    0  <0>0        0.1388
     24  O3        -0.4770   24.9010   51.2610 O.3     0  <0>0       -0.4714
     25  C18       -0.3740   23.8230   52.1920 C.3     0  <0>0        0.2525
@<TRIPOS>BOND
     1    22    20   ar
     2    22    23   ar
     3    24    23    1
     4    24    25    1
     5    20    17   ar
     6    23    18   ar
     7    17    16   ar
     8    17    19   ar
     9    18    16   ar
    10    16    15   ar
    11    19    21   ar
    12    15    21   ar
    13    15    14    1
    14    14    13    1
    15     1     2    1
    16     3     2    2
    17     3     4    1
    18    13     4    2
    19    13    12    1
    20     2     8    1
    21     4     5    1
    22    12    10    1
    23     8     9    1
    24     8     6    1
    25     5     6    1
    26     5    10    1
    27     6     7    2
    28    10    11    2
