@<TRIPOS>MOLECULE
ZINC40025638_replica-1.pdb
 25 26 0 0 0
SMALL
GASTEIGER

@<TRIPOS>ATOM
      1  C6        -0.3410   28.6660   55.9170 C.3     0  <0>0        0.1229
      2  N1        -0.6020   30.0850   56.1750 N.am    0  <0>0       -0.2982
      3  C5         0.0240   30.7100   57.1910 C.2     0  <0>0        0.2229
      4  O1         0.8020   30.1000   57.8930 O.2     0  <0>0       -0.2751
      5  H10       -1.2240   30.5740   55.6140 H       0  <0>0        0.1500
      6  C4        -0.2440   32.1700   57.4570 C.3     0  <0>0        0.0856
      7  C2         1.0550   32.9630   57.3010 C.3     0  <0>0        0.0194
      8  C1         1.8990   32.3460   56.1840 C.3     0  <0>0        0.0011
      9  C3         0.7250   34.4160   56.9470 C.3     0  <0>0        0.0011
     10  C17        1.8380   32.9230   58.6140 C.3     0  <0>0        0.1145
     11  C18        0.9090   33.2130   59.7640 C.2     0  <0>0        0.3649
     12  O2         0.4950   32.2990   60.4590 O.co2   0  <0>0       -0.2457
     13  O3         0.5690   34.3600   60.0000 O.co2   0  <0>0       -0.2457
     14  C7        -0.6900   28.3440   54.4860 C.ar    0  <0>0        0.0003
     15  C12       -0.1960   27.1960   53.8970 C.ar    0  <0>0       -0.0000
     16  C11       -0.5190   26.8970   52.5870 C.ar    0  <0>0        0.0294
     17  C10       -1.3280   27.7530   51.8620 C.ar    0  <0>0        0.1401
     18  C9        -1.8180   28.9060   52.4510 C.ar    0  <0>0        0.0294
     19  F1        -1.6410   27.4650   50.5790 F       0  <0>0       -0.2042
     20  C8        -1.4980   29.2010   53.7620 C.ar    0  <0>0       -0.0000
     21  C13       -1.1830   27.8250   56.8410 C.ar    0  <0>0        0.0292
     22  S1        -0.7570   26.3080   57.6810 S.2     0  <0>0       -0.0888
     23  C16       -2.3080   26.0410   58.5220 C.ar    0  <0>0        0.0352
     24  C15       -3.0380   27.1060   58.1070 C.ar    0  <0>0        0.0072
     25  C14       -2.4610   28.0200   57.2460 C.ar    0  <0>0        0.0046
@<TRIPOS>BOND
     1    19    17    1
     2    17    18   ar
     3    17    16   ar
     4    18    20   ar
     5    16    15   ar
     6    20    14   ar
     7    15    14   ar
     8    14     1    1
     9     5     2    1
    10     1     2    1
    11     1    21    1
    12     2     3   am
    13     8     7    1
    14    21    25   ar
    15    21    22   ar
    16     9     7    1
    17     3     6    1
    18     3     4    2
    19    25    24   ar
    20     7     6    1
    21     7    10    1
    22    22    23   ar
    23    24    23   ar
    24    10    11    1
    25    11    13   ar
    26    11    12   ar
