@<TRIPOS>MOLECULE
ZINC65575983_replica-1.pdb
 23 24 0 0 0
SMALL
GASTEIGER

@<TRIPOS>ATOM
      1  N1         8.4770   34.9150   58.6010 N.am    0  <0>0       -0.3026
      2  C10        8.3730   33.7150   57.9970 C.2     0  <0>0        0.2714
      3  O1         8.5360   32.6970   58.6370 O.2     0  <0>0       -0.2706
      4  H18        8.3470   35.7280   58.0900 H       0  <0>0        0.1495
      5  C11        8.0540   33.6370   56.5270 C.3     0  <0>0        0.3017
      6  N2         6.7900   34.3290   56.2630 N.am    0  <0>0       -0.1093
      7  C13        5.5290   33.8530   56.4800 C.1     0  <0>0        0.1798
      8  N4         4.6940   34.7950   56.1090 N.2     0  <0>0        0.0470
      9  S1         5.1040   32.2760   57.1410 S.2     0  <0>0        0.0561
     10  N3         5.3480   35.8110   55.6700 N.2     0  <0>0        0.0876
     11  C12        6.6290   35.5830   55.7400 C.2     0  <0>0        0.3408
     12  C14        7.7280   36.5260   55.3250 C.3     0  <0>0        0.1209
     13  C15        7.4890   37.8980   55.9580 C.3     0  <0>0        0.0128
     14  C16        8.5420   38.1520   57.0380 C.3     0  <0>0        0.0006
     15  C9         8.7880   34.9910   60.0310 C.3     0  <0>0        0.0716
     16  C5        10.2330   35.4780   60.2320 C.3     0  <0>0        0.0180
     17  C6        10.1470   36.7950   61.0330 C.3     0  <0>0        0.0017
     18  C7         8.7210   37.3240   60.7410 C.3     0  <0>0        0.0017
     19  C8         7.8730   36.0280   60.7180 C.3     0  <0>0        0.0196
     20  C4        11.0330   34.4390   61.0190 C.3     0  <0>0        0.0016
     21  C3        11.8550   35.1390   62.1020 C.3     0  <0>0        0.0001
     22  C2        12.4060   34.0980   63.0780 C.3     0  <0>0        0.0000
     23  C1        11.7870   32.7330   62.7720 C.3     0  <0>0        0.0000
@<TRIPOS>BOND
     1    12    11    1
     2    12    13    1
     3    10    11    2
     4    10     8    1
     5    11     6    1
     6    13    14    1
     7     8     7    2
     8     6     7    1
     9     6     5    1
    10     7     9    2
    11     5     2    1
    12     2     1   am
    13     2     3    2
    14     4     1    1
    15     1    15    1
    16    15    16    1
    17    15    19    1
    18    16    20    1
    19    16    17    1
    20    19    18    1
    21    18    17    1
    22    20    21    1
    23    21    22    1
    24    23    22    1
