@<TRIPOS>MOLECULE
ZINC49927721_replica-1.pdb
 25 26 0 0 0
SMALL
GASTEIGER

@<TRIPOS>ATOM
      1  C11        8.0370   38.0240   58.5330 C.3     0  <0>0        0.1521
      2  C8         8.9420   37.0700   59.2690 C.ar    0  <0>0        0.0059
      3  C7         9.4370   37.4100   60.5150 C.ar    0  <0>0       -0.0022
      4  C6        10.2660   36.5350   61.1900 C.ar    0  <0>0       -0.0045
      5  C5        10.6000   35.3200   60.6220 C.ar    0  <0>0       -0.0225
      6  C10       10.1090   34.9830   59.3740 C.ar    0  <0>0       -0.0045
      7  C9         9.2770   35.8560   58.7000 C.ar    0  <0>0       -0.0022
      8  C3        11.5040   34.3660   61.3590 C.3     0  <0>0        0.0223
      9  C4        10.6910   33.1610   61.8370 C.3     0  <0>0        0.0047
     10  C2        12.1210   35.0760   62.5650 C.3     0  <0>0        0.0044
     11  C1        13.1830   34.1750   63.2000 C.3     0  <0>0        0.0003
     12  C12        8.7210   38.4850   57.2440 C.3     0  <0>0        0.1213
     13  N1         7.8020   38.3160   56.1160 N.pl3   0  <0>0       -0.3304
     14  H17        7.6980   39.0270   55.4640 H       0  <0>0        0.1469
     15  C13        7.0740   37.1280   55.9770 C.ar    0  <0>0        0.0449
     16  C18        5.6900   37.1470   56.0670 C.ar    0  <0>0        0.0174
     17  C17        4.9720   35.9760   55.9250 C.ar    0  <0>0        0.0382
     18  C16        5.6370   34.7780   55.7050 C.ar    0  <0>0        0.1386
     19  C15        7.0210   34.7580   55.6200 C.ar    0  <0>0        0.0382
     20  C14        7.7380   35.9290   55.7550 C.ar    0  <0>0        0.0174
     21  O1         4.9300   33.6240   55.5710 O.3     0  <0>0       -0.4755
     22  C19        5.1330   32.6190   56.5660 C.3     0  <0>0        0.2055
     23  C20        4.2140   32.8890   57.7590 C.3     0  <0>0        0.0512
     24  O2         7.7670   39.1580   59.3600 O.3     0  <0>0       -0.3783
     25  H27        6.8740   39.5170   59.2570 H       0  <0>0        0.2109
@<TRIPOS>BOND
     1    14    13    1
     2    21    18    1
     3    21    22    1
     4    19    18   ar
     5    19    20   ar
     6    18    17   ar
     7    20    15   ar
     8    17    16   ar
     9    15    16   ar
    10    15    13    1
    11    13    12    1
    12    22    23    1
    13    12     1    1
    14     1     2    1
    15     1    24    1
    16     7     2   ar
    17     7     6   ar
    18    25    24    1
    19     2     3   ar
    20     6     5   ar
    21     3     4   ar
    22     5     4   ar
    23     5     8    1
    24     8     9    1
    25     8    10    1
    26    10    11    1
