@<TRIPOS>MOLECULE
ZINC37074501_replica-1.pdb
 22 23 0 0 0
SMALL
GASTEIGER

@<TRIPOS>ATOM
      1  C8         0.1740   29.6800   54.9250 C.ar    0  <0>0        0.0736
      2  C9         0.3020   28.3590   54.5190 C.ar    0  <0>0        0.0309
      3  C10       -0.4770   27.8770   53.4770 C.ar    0  <0>0        0.0476
      4  C11       -1.3820   28.7170   52.8420 C.ar    0  <0>0       -0.0059
      5  C12       -1.5090   30.0320   53.2460 C.ar    0  <0>0        0.0279
      6  C13       -0.7390   30.5160   54.2880 C.ar    0  <0>0        0.1529
      7  F1        -0.8680   31.8000   54.6850 F       0  <0>0       -0.2029
      8  C14       -2.2280   28.1890   51.7120 C.3     0  <0>0        0.0372
      9  C15       -1.4300   27.1550   50.9170 C.3     0  <0>0        0.0901
     10  C16       -0.8010   26.1610   51.8570 C.2     0  <0>0        0.2264
     11  O1        -0.6970   25.0000   51.5200 O.2     0  <0>0       -0.2748
     12  N2        -0.3520   26.5460   53.0650 N.am    0  <0>0       -0.2841
     13  H23        0.0630   25.8960   53.6540 H       0  <0>0        0.1548
     14  N1         0.9560   30.1690   55.9750 N.pl3   0  <0>0       -0.3323
     15  H16        1.9080   30.3110   55.8470 H       0  <0>0        0.1468
     16  C2         0.3400   30.4670   57.2710 C.3     0  <0>0        0.0691
     17  C1         1.3000   31.3130   58.1090 C.3     0  <0>0        0.0212
     18  C3         0.0390   29.1590   58.0050 C.3     0  <0>0        0.0195
     19  C4        -1.4570   29.0800   58.3150 C.3     0  <0>0        0.0017
     20  C5        -2.1200   28.0700   57.3770 C.3     0  <0>0        0.0001
     21  C6        -2.8830   27.0320   58.2030 C.3     0  <0>0        0.0000
     22  C7        -3.0940   28.7990   56.4500 C.3     0  <0>0        0.0000
@<TRIPOS>BOND
     1     9     8    1
     2     9    10    1
     3    11    10    2
     4     8     4    1
     5    10    12   am
     6     4     5   ar
     7     4     3   ar
     8    12     3    1
     9    12    13    1
    10     5     6   ar
    11     3     2   ar
    12     6     7    1
    13     6     1   ar
    14     2     1   ar
    15     1    14    1
    16    15    14    1
    17    14    16    1
    18    22    20    1
    19    16    18    1
    20    16    17    1
    21    20    21    1
    22    20    19    1
    23    18    19    1
