@<TRIPOS>MOLECULE
ZINC61539410_replica-1.pdb
 22 23 0 0 0
SMALL
GASTEIGER

@<TRIPOS>ATOM
      1  C4         0.4370   30.9090   58.4840 C.1     0  <0>0        0.3317
      2  N1        -0.3920   30.2400   57.6920 N.2     0  <0>0       -0.2293
      3  C5        -0.3180   30.3940   56.3740 C.1     0  <0>0        0.2231
      4  N2         0.5870   31.2190   55.8530 N.2     0  <0>0       -0.2493
      5  C6         1.4110   31.8840   56.6450 C.1     0  <0>0        0.2286
      6  N3         1.3340   31.7360   57.9580 N.2     0  <0>0       -0.2320
      7 Cl          2.5900   32.9600   55.9630 Cl      0  <0>0        0.0258
      8  N4        -1.1760   29.7000   55.5480 N.pl3   0  <0>0       -0.2551
      9  H9        -1.8350   29.0980   55.9290 H       0  <0>0        0.1605
     10  C7        -1.0940   29.8710   54.0950 C.3     0  <0>0        0.1026
     11  C8        -2.3770   30.5290   53.5850 C.3     0  <0>0        0.0268
     12  C9        -0.9250   28.5240   53.4400 C.ar    0  <0>0       -0.0039
     13  C14       -0.2190   27.5260   54.0850 C.ar    0  <0>0       -0.0018
     14  C13       -0.0680   26.2890   53.4860 C.ar    0  <0>0        0.0111
     15  C12       -0.6140   26.0540   52.2370 C.ar    0  <0>0        0.0577
     16  C11       -1.3150   27.0560   51.5900 C.ar    0  <0>0        0.0111
     17 Cl         -0.4190   24.5030   51.4810 Cl      0  <0>0       -0.0822
     18  C10       -1.4700   28.2900   52.1910 C.ar    0  <0>0       -0.0018
     19  O1         0.3640   30.7540   59.8260 O.2     0  <0>0       -0.3987
     20  C3         1.1470   31.6420   60.6250 C.3     0  <0>0        0.2225
     21  C2         0.2810   32.8180   61.0800 C.3     0  <0>0        0.0486
     22  C1         0.2100   32.8400   62.6080 C.3     0  <0>0        0.0040
@<TRIPOS>BOND
     1    17    15    1
     2    16    18   ar
     3    16    15   ar
     4    18    12   ar
     5    15    14   ar
     6    12    13   ar
     7    12    10    1
     8    14    13   ar
     9    11    10    1
    10    10     8    1
    11     8     9    1
    12     8     3    1
    13     4     3    2
    14     4     5    2
    15     7     5    1
    16     3     2    2
    17     5     6    2
    18     2     1    2
    19     6     1    2
    20     1    19    1
    21    19    20    1
    22    20    21    1
    23    21    22    1
