@<TRIPOS>MOLECULE
ZINC02535783_replica-1.pdb
 22 22 0 0 0
SMALL
GASTEIGER

@<TRIPOS>ATOM
      1  C1         8.3100   31.9330   60.7580 C.3     0  <0>0        0.0323
      2  C2         9.2240   33.1190   60.9340 C.ar    0  <0>0       -0.0090
      3  C3        10.4150   32.9770   61.6190 C.ar    0  <0>0       -0.0073
      4  C4        11.2570   34.0640   61.7750 C.ar    0  <0>0       -0.0233
      5  C5        10.9070   35.2950   61.2520 C.ar    0  <0>0       -0.0073
      6  C6         9.7160   35.4440   60.5700 C.ar    0  <0>0       -0.0090
      7  C7         8.8680   34.3550   60.4110 C.ar    0  <0>0        0.0414
      8  C13        9.3350   36.7850   59.9990 C.3     0  <0>0        0.0323
      9  N1         7.6590   34.5020   59.7220 N.am    0  <0>0       -0.2964
     10  H6         6.8230   34.5370   60.2130 H       0  <0>0        0.1538
     11  C8         7.6550   34.5960   58.3790 C.2     0  <0>0        0.1350
     12  S1         8.5090   33.4480   57.4380 S.2     0  <0>0       -0.0185
     13  N2         6.9800   35.5940   57.7740 N.am    0  <0>0       -0.3190
     14  H7         6.4350   36.1990   58.3010 H       0  <0>0        0.1483
     15  C9         7.0680   35.7640   56.3220 C.3     0  <0>0        0.0560
     16  C10        6.2570   36.9920   55.9030 C.3     0  <0>0        0.0196
     17  C11        8.5300   35.9570   55.9180 C.3     0  <0>0        0.0196
     18  C12        6.5060   34.5210   55.6280 C.3     0  <0>0        0.0196
     19  C14       12.5580   33.9040   62.5180 C.3     0  <0>0        0.0189
     20  C15       13.7240   34.2290   61.5820 C.3     0  <0>0        0.0044
     21  C16       12.5830   34.8590   63.7140 C.3     0  <0>0        0.0044
     22  C17       12.6900   32.4630   63.0140 C.3     0  <0>0        0.0044
@<TRIPOS>BOND
     1    18    15    1
     2    16    15    1
     3    17    15    1
     4    15    13    1
     5    12    11    2
     6    13    14    1
     7    13    11    1
     8    11     9    1
     9     9    10    1
    10     9     7    1
    11     8     6    1
    12     7     6   ar
    13     7     2   ar
    14     6     5   ar
    15     1     2    1
    16     2     3   ar
    17     5     4   ar
    18    20    19    1
    19     3     4   ar
    20     4    19    1
    21    19    22    1
    22    19    21    1
