@<TRIPOS>MOLECULE
ZINC40354523_replica-1.pdb
 29 30 0 0 0
SMALL
GASTEIGER

@<TRIPOS>ATOM
      1  C4         7.5510   36.2960   60.5930 C.3     0  <0>0        0.2267
      2  C3         6.9900   37.6370   60.1140 C.3     0  <0>0        0.0517
      3  C2         8.0500   38.3650   59.2850 C.3     0  <0>0        0.0042
      4  C1         7.5960   38.4320   57.8240 C.3     0  <0>0        0.0001
      5  C5         6.6070   35.1880   60.2020 C.2     0  <0>0        0.2157
      6  O1         6.4480   34.2380   60.9410 O.2     0  <0>0       -0.2874
      7  C6         5.8840   35.2560   58.9320 C.ar    0  <0>0        0.0753
      8  C11        6.5080   34.8400   57.7420 C.ar    0  <0>0        0.1422
      9  C10        5.8170   34.9030   56.5460 C.ar    0  <0>0        0.0462
     10  C9         4.5140   35.3850   56.5180 C.ar    0  <0>0        0.0623
     11  C8         3.8920   35.8050   57.6990 C.ar    0  <0>0        0.1446
     12  C7         4.5670   35.7430   58.8960 C.ar    0  <0>0        0.0434
     13  O2         7.7810   34.3740   57.7680 O.3     0  <0>0       -0.4713
     14  C12        8.6810   34.8890   56.7850 C.3     0  <0>0        0.2525
     15  S1         3.6420   35.4680   54.9890 S.3     0  <0>0       -0.1097
     16  C13        4.7390   34.6320   53.8110 C.3     0  <0>0        0.0743
     17  O3         2.6160   36.2760   57.6630 O.3     0  <0>0       -0.4709
     18  C14        1.6270   35.5220   58.3680 C.3     0  <0>0        0.2525
     19  O4         8.8260   36.0700   59.9890 O.3     0  <0>0       -0.4702
     20  C15        9.8270   35.6380   60.8040 C.ar    0  <0>0        0.1517
     21  C20       10.1200   34.2790   60.8910 C.ar    0  <0>0        0.0757
     22  C19       11.1450   33.8460   61.7190 C.ar    0  <0>0        0.0129
     23  C18       11.8640   34.7610   62.4650 C.ar    0  <0>0       -0.0204
     24  C17       11.5690   36.1080   62.3830 C.ar    0  <0>0       -0.0011
     25  C21       12.9740   34.2870   63.3680 C.3     0  <0>0        0.0311
     26  C16       10.5520   36.5480   61.5560 C.ar    0  <0>0        0.0379
     27  N1         9.3860   33.3540   60.1390 N.pl3   0  <0>0       -0.3546
     28  H23        9.7210   32.4520   60.0180 H       0  <0>0        0.1424
     29  H24        8.5420   33.6150   59.7380 H       0  <0>0        0.1424
@<TRIPOS>BOND
     1    16    15    1
     2    15    10    1
     3    10     9   ar
     4    10    11   ar
     5     9     8   ar
     6    14    13    1
     7    17    11    1
     8    17    18    1
     9    11    12   ar
    10     8    13    1
    11     8     7   ar
    12     4     3    1
    13    12     7   ar
    14     7     5    1
    15     3     2    1
    16    29    27    1
    17    19     1    1
    18    19    20    1
    19    28    27    1
    20     2     1    1
    21    27    21    1
    22     5     1    1
    23     5     6    2
    24    20    21   ar
    25    20    26   ar
    26    21    22   ar
    27    26    24   ar
    28    22    23   ar
    29    24    23   ar
    30    23    25    1
