@<TRIPOS>MOLECULE
ZINC25157923_replica-1.pdb
 29 30 0 0 0
SMALL
GASTEIGER

@<TRIPOS>ATOM
      1  C4         1.0730   32.1490   56.6400 C.2     0  <0>0        0.2243
      2  O1         2.2110   31.7930   56.8630 O.2     0  <0>0       -0.2750
      3  N1         0.5200   33.1360   57.3730 N.am    0  <0>0       -0.3021
      4  H8        -0.3900   33.4200   57.1950 H       0  <0>0        0.1497
      5  C3         0.2770   31.4880   55.5450 C.3     0  <0>0        0.1045
      6  C2        -0.0690   30.0560   55.9590 C.3     0  <0>0        0.0810
      7  C1        -1.2150   30.0800   56.9720 C.3     0  <0>0        0.0218
      8  N2        -0.4780   29.2920   54.7780 N.am    0  <0>0       -0.3020
      9  C16       -0.0240   28.0360   54.5980 C.2     0  <0>0        0.2458
     10  O3         0.7250   27.5370   55.4140 O.2     0  <0>0       -0.2701
     11  H23       -1.0750   29.6890   54.1250 H       0  <0>0        0.1497
     12  C17       -0.4370   27.2640   53.4060 C.ar    0  <0>0        0.0534
     13  C22       -1.2030   27.8700   52.4090 C.ar    0  <0>0        0.0045
     14  C21       -1.5800   27.1460   51.2970 C.ar    0  <0>0        0.0001
     15  C20       -1.2090   25.8180   51.1740 C.ar    0  <0>0        0.0000
     16  C19       -0.4530   25.2100   52.1610 C.ar    0  <0>0        0.0001
     17  C18       -0.0650   25.9250   53.2750 C.ar    0  <0>0        0.0045
     18  C5         1.2940   33.7790   58.4390 C.3     0  <0>0        0.0940
     19  C6         0.7950   33.3020   59.7790 C.ar    0  <0>0       -0.0043
     20  C11        0.8430   31.9570   60.0940 C.ar    0  <0>0        0.0004
     21  C10        0.3910   31.5190   61.3250 C.ar    0  <0>0        0.0366
     22  C9        -0.1210   32.4280   62.2380 C.ar    0  <0>0        0.1387
     23  C8        -0.1740   33.7770   61.9160 C.ar    0  <0>0        0.0366
     24  C7         0.2840   34.2110   60.6870 C.ar    0  <0>0        0.0004
     25  O2        -0.5700   31.9990   63.4470 O.3     0  <0>0       -0.4714
     26  C12       -0.4350   30.6050   63.7320 C.3     0  <0>0        0.2525
     27  C13        1.1300   35.2960   58.3440 C.3     0  <0>0        0.0222
     28  C14        2.5010   35.9660   58.4660 C.3     0  <0>0        0.0020
     29  C15        0.5030   35.6590   56.9950 C.3     0  <0>0        0.0020
@<TRIPOS>BOND
     1    15    14   ar
     2    15    16   ar
     3    14    13   ar
     4    16    17   ar
     5    13    12   ar
     6    17    12   ar
     7    12     9    1
     8    11     8    1
     9     9     8   am
    10     9    10    2
    11     8     6    1
    12     5     6    1
    13     5     1    1
    14     6     7    1
    15     1     2    2
    16     1     3   am
    17    29    27    1
    18     4     3    1
    19     3    18    1
    20    27    18    1
    21    27    28    1
    22    18    19    1
    23    19    20   ar
    24    19    24   ar
    25    20    21   ar
    26    24    23   ar
    27    21    22   ar
    28    23    22   ar
    29    22    25    1
    30    25    26    1
