@<TRIPOS>MOLECULE
ZINC35667924_replica-1.pdb
 30 32 0 0 0
SMALL
GASTEIGER

@<TRIPOS>ATOM
      1  C9         5.8610   36.6310   58.3470 C.ar    0  <0>0        0.1390
      2  C10        5.9300   36.3370   56.9900 C.ar    0  <0>0        0.0366
      3  C11        4.9090   35.6440   56.3800 C.ar    0  <0>0       -0.0008
      4  C12        3.7980   35.2350   57.1290 C.ar    0  <0>0       -0.0161
      5  C13        3.7340   35.5350   58.4970 C.ar    0  <0>0       -0.0008
      6  C14        4.7630   36.2230   59.0970 C.ar    0  <0>0        0.0366
      7  C15        2.7060   34.4960   56.4850 C.3     0  <0>0        0.0743
      8  C16        2.6970   33.1390   56.5100 C.2     0  <0>0        0.1127
      9  C17        3.7030   32.4150   57.2890 C.2     0  <0>0        0.3973
     10  O2         4.7980   32.1700   56.7970 O.co2   0  <0>0       -0.2395
     11  O3         3.4500   32.0560   58.4320 O.co2   0  <0>0       -0.2395
     12  N1         1.7260   32.4320   55.7910 N.am    0  <0>0       -0.2783
     13  C18        0.5440   32.1340   56.3670 C.2     0  <0>0        0.2494
     14  O4         0.2790   32.5710   57.4700 O.2     0  <0>0       -0.2698
     15  H15        1.9030   32.1560   54.8780 H       0  <0>0        0.1551
     16  C19       -0.4290   31.2780   55.6580 C.ar    0  <0>0        0.0537
     17  C24       -0.0310   30.5440   54.5390 C.ar    0  <0>0        0.0045
     18  C23       -0.9430   29.7410   53.8840 C.ar    0  <0>0        0.0001
     19  C22       -2.2510   29.6730   54.3260 C.ar    0  <0>0        0.0000
     20  C21       -2.6540   30.4030   55.4310 C.ar    0  <0>0        0.0001
     21  C20       -1.7510   31.2040   56.0980 C.ar    0  <0>0        0.0045
     22  O1         6.8710   37.3150   58.9430 O.3     0  <0>0       -0.4707
     23  C8         8.1700   37.1880   58.3620 C.3     0  <0>0        0.2317
     24  C7         9.1050   36.5460   59.3560 C.ar    0  <0>0        0.0172
     25  C2         9.5600   35.2590   59.1450 C.ar    0  <0>0       -0.0223
     26  C1         9.1210   34.4950   57.9220 C.3     0  <0>0        0.0308
     27  C3        10.4200   34.6730   60.0540 C.ar    0  <0>0       -0.0045
     28  C4        10.8230   35.3730   61.1760 C.ar    0  <0>0       -0.0003
     29  C5        10.3640   36.6590   61.3900 C.ar    0  <0>0       -0.0002
     30  C6         9.5040   37.2450   60.4800 C.ar    0  <0>0       -0.0010
@<TRIPOS>BOND
     1    18    19   ar
     2    18    17   ar
     3    19    20   ar
     4    17    16   ar
     5    15    12    1
     6    20    21   ar
     7    16    21   ar
     8    16    13    1
     9    12    13   am
    10    12     8    2
    11    13    14    2
    12     3     2   ar
    13     3     4   ar
    14     7     8    1
    15     7     4    1
    16     8     9    1
    17    10     9   ar
    18     2     1   ar
    19     4     5   ar
    20     9    11   ar
    21    26    25    1
    22     1    22    1
    23     1     6   ar
    24    23    22    1
    25    23    24    1
    26     5     6   ar
    27    25    24   ar
    28    25    27   ar
    29    24    30   ar
    30    27    28   ar
    31    30    29   ar
    32    28    29   ar
