@<TRIPOS>MOLECULE
ZINC39751858_replica-1.pdb
 21 23 0 0 0
SMALL
GASTEIGER

@<TRIPOS>ATOM
      1  C1        12.5720   30.4860   63.9770 C.3     0  <0>0        0.0281
      2  C2        13.0870   31.8100   63.4740 C.2     0  <0>0       -0.0177
      3  C3        12.3060   32.6310   62.7590 C.2     0  <0>0        0.1247
      4  C4        12.8910   33.9130   62.3050 C.2     0  <0>0        0.1810
      5  N1        12.1810   34.7580   61.6030 N.2     0  <0>0       -0.3321
      6  C5        10.9150   34.4950   61.2740 C.1     0  <0>0        0.1504
      7  N2        10.2930   33.3840   61.6250 N.2     0  <0>0       -0.2661
      8  C6        10.8810   32.4260   62.3430 C.1     0  <0>0        0.2168
      9  O1        10.2770   31.4120   62.6500 O.2     0  <0>0       -0.2085
     10  S1        14.5540   33.8940   62.9250 S.3     0  <0>0       -0.0762
     11  C14       14.5010   32.2590   63.7660 C.3     0  <0>0        0.0875
     12  C7        10.1720   35.4980   60.4770 C.ar    0  <0>0        0.0864
     13  C12        9.6750   35.1600   59.2170 C.ar    0  <0>0        0.0159
     14  C11        8.9770   36.0960   58.4820 C.ar    0  <0>0        0.0721
     15  C10        8.7820   37.3700   58.9850 C.ar    0  <0>0        0.0039
     16  C9         9.2760   37.7120   60.2300 C.ar    0  <0>0        0.0007
     17  C8         9.9710   36.7840   60.9790 C.ar    0  <0>0        0.0120
     18  C13        8.4340   35.7320   57.1240 C.3     0  <0>0        0.4186
     19  F1         8.7150   36.7610   56.2180 F       0  <0>0       -0.1659
     20  F2         9.0330   34.5470   56.6840 F       0  <0>0       -0.1659
     21  F3         7.0490   35.5520   57.2090 F       0  <0>0       -0.1659
@<TRIPOS>BOND
     1    19    18    1
     2    20    18    1
     3    18    21    1
     4    18    14    1
     5    14    15   ar
     6    14    13   ar
     7    15    16   ar
     8    13    12   ar
     9    16    17   ar
    10    12    17   ar
    11    12     6    1
    12     6     5    2
    13     6     7    2
    14     5     4    2
    15     7     8    2
    16     4     3    1
    17     4    10    1
    18     8     9    2
    19     8     3    1
    20     3     2    2
    21    10    11    1
    22     2    11    1
    23     2     1    1
