@<TRIPOS>MOLECULE
ZINC05832811_replica-1.pdb
 31 33 0 0 0
SMALL
GASTEIGER

@<TRIPOS>ATOM
      1  C6         2.9000   35.4460   58.3060 C.2     0  <0>0        0.0298
      2  C7         2.6120   35.7650   56.9760 C.2     0  <0>0        0.1887
      3  O1         1.3500   35.7300   56.5440 O.2     0  <0>0       -0.2872
      4  C8         3.6460   36.1230   56.0900 C.2     0  <0>0        0.0205
      5  C9         4.9340   36.1620   56.5190 C.3     0  <0>0        0.0618
      6  C10        5.2390   35.8440   57.8540 C.2     0  <0>0        0.0503
      7  C11        6.5700   35.8800   58.3200 C.2     0  <0>0        0.1358
      8  C12        6.8100   35.5660   59.6770 C.2     0  <0>0        0.0719
      9  C13        5.7570   35.2240   60.4910 C.2     0  <0>0        0.1824
     10  O2         4.5020   35.1900   60.0350 O.2     0  <0>0       -0.4508
     11  C14        4.2070   35.4890   58.7530 C.2     0  <0>0        0.1416
     12  C5         1.7900   35.0630   59.2500 C.3     0  <0>0       -0.0435
     13  N1         1.8370   33.6030   59.4750 N.4     0  <0>0        0.3898
     14  H29        2.7410   33.2450   59.1460 H       0  <0>0       -0.0792
     15  C4         1.7000   33.3100   60.9170 C.3     0  <0>0       -0.0768
     16  C2         0.2430   32.9480   61.2100 C.3     0  <0>0       -0.0208
     17  C1         0.1930   31.6600   62.0340 C.3     0  <0>0       -0.0022
     18  C3        -0.4170   34.0830   61.9950 C.3     0  <0>0       -0.0022
     19  C21        0.7530   32.9400   58.7190 C.3     0  <0>0       -0.0768
     20  C22        1.3470   31.7660   57.9390 C.3     0  <0>0       -0.0208
     21  C23        0.4010   30.5670   58.0210 C.3     0  <0>0       -0.0022
     22  C24        1.5330   32.1700   56.4740 C.3     0  <0>0       -0.0022
     23  O3         7.5840   36.2190   57.4960 O.2     0  <0>0       -0.5056
     24  H19        7.4080   36.0420   56.5620 H       0  <0>0        0.2922
     25  C15        8.1930   35.5950   60.2160 C.ar    0  <0>0        0.0165
     26  C20        8.9970   34.4580   60.1400 C.ar    0  <0>0        0.0578
     27  C19       10.2840   34.4930   60.6390 C.ar    0  <0>0        0.0114
     28 Cl          8.3830   33.0060   59.4150 Cl      0  <0>0       -0.0822
     29  C18       10.7720   35.6490   61.2210 C.ar    0  <0>0        0.0009
     30  C17        9.9760   36.7780   61.3030 C.ar    0  <0>0        0.0001
     31  C16        8.6900   36.7560   60.8030 C.ar    0  <0>0        0.0010
@<TRIPOS>BOND
     1     4     5    1
     2     4     2    2
     3    22    20    1
     4     5     6    1
     5     3     2    1
     6    24    23    1
     7     2     1    1
     8    23     7    1
     9     6     7    2
    10     6    11    1
    11    20    21    1
    12    20    19    1
    13     1    11    2
    14     1    12    1
    15     7     8    1
    16    19    13    1
    17    11    10    1
    18    14    13    1
    19    12    13    1
    20    28    26    1
    21    13    15    1
    22     8    25    1
    23     8     9    2
    24    10     9    1
    25    26    25   ar
    26    26    27   ar
    27    25    31   ar
    28    27    29   ar
    29    31    30   ar
    30    15    16    1
    31    16    18    1
    32    16    17    1
    33    29    30   ar
