@<TRIPOS>MOLECULE
ZINC00239322_replica-1.pdb
 26 27 0 0 0
SMALL
GASTEIGER

@<TRIPOS>ATOM
      1  C9        -0.0790   31.3590   55.3730 C.2     0  <0>0        0.2856
      2  O2         0.8280   30.5820   55.5880 O.2     0  <0>0       -0.2693
      3  N1         0.0190   32.6380   55.7870 N.am    0  <0>0       -0.2028
      4  H9        -0.7050   33.2600   55.6120 H       0  <0>0        0.1774
      5  N2         1.1650   33.0700   56.4660 N.2     0  <0>0       -0.1775
      6  C10        1.3380   34.3320   56.7110 C.2     0  <0>0        0.1176
      7  C11        2.5460   34.7870   57.4240 C.ar    0  <0>0        0.0207
      8  C16        3.5370   35.4980   56.7450 C.ar    0  <0>0        0.0013
      9  C15        4.6640   35.9200   57.4180 C.ar    0  <0>0       -0.0042
     10  C14        4.8130   35.6410   58.7650 C.ar    0  <0>0       -0.0228
     11  C13        3.8350   34.9380   59.4460 C.ar    0  <0>0       -0.0042
     12  C12        2.7010   34.5140   58.7860 C.ar    0  <0>0        0.0013
     13  C17        6.0470   36.1060   59.4950 C.3     0  <0>0        0.0189
     14  C18        6.4180   35.0840   60.5720 C.3     0  <0>0        0.0044
     15  C19        7.2050   36.2440   58.5040 C.3     0  <0>0        0.0044
     16  C20        5.7730   37.4610   60.1490 C.3     0  <0>0        0.0044
     17  C8        -1.3130   30.8950   54.6440 C.3     0  <0>0        0.2911
     18  O1        -1.4660   29.4850   54.8180 O.3     0  <0>0       -0.4662
     19  C7        -1.3480   28.7100   53.7060 C.ar    0  <0>0        0.1312
     20  C2        -2.0750   29.0170   52.5660 C.ar    0  <0>0        0.0118
     21  C1        -2.9960   30.2100   52.5560 C.3     0  <0>0        0.0342
     22  C3        -1.9500   28.2310   51.4370 C.ar    0  <0>0       -0.0013
     23  C4        -1.1090   27.1330   51.4460 C.ar    0  <0>0       -0.0004
     24  C5        -0.3880   26.8210   52.5830 C.ar    0  <0>0       -0.0013
     25  C6        -0.5060   27.6080   53.7140 C.ar    0  <0>0        0.0118
     26  C21        0.2800   27.2680   54.9540 C.3     0  <0>0        0.0342
@<TRIPOS>BOND
     1    22    23   ar
     2    22    20   ar
     3    23    24   ar
     4    21    20    1
     5    20    19   ar
     6    24    25   ar
     7    19    25   ar
     8    19    18    1
     9    25    26    1
    10    17    18    1
    11    17     1    1
    12     1     2    2
    13     1     3   am
    14     4     3    1
    15     3     5    1
    16     5     6    2
    17     6     7    1
    18     8     9   ar
    19     8     7   ar
    20     9    10   ar
    21     7    12   ar
    22    15    13    1
    23    10    11   ar
    24    10    13    1
    25    12    11   ar
    26    13    16    1
    27    13    14    1
