@<TRIPOS>MOLECULE
ZINC43763552_replica-1.pdb
 23 25 0 0 0
SMALL
GASTEIGER

@<TRIPOS>ATOM
      1  N1        -2.0300   29.7450   55.5720 N.pl3   0  <0>0       -0.1367
      2  H8        -2.9630   29.4990   55.6670 H       0  <0>0        0.1966
      3  S1        -1.4070   30.0640   54.0710 S.O2    0  <0>0        0.0877
      4  O1        -0.1290   30.6510   54.2790 O.2     0  <0>0       -0.1487
      5  O2        -2.4340   30.7150   53.3350 O.2     0  <0>0       -0.1487
      6  C5        -1.1270   28.5140   53.2830 C.ar    0  <0>0        0.1266
      7  C4        -0.3790   27.5400   53.9180 C.ar    0  <0>0        0.0199
      8  C3        -0.1610   26.3230   53.2990 C.ar    0  <0>0       -0.0029
      9  C2        -0.6920   26.0790   52.0470 C.ar    0  <0>0       -0.0218
     10  C1        -0.4540   24.7520   51.3720 C.3     0  <0>0        0.0310
     11  C7        -1.4360   27.0540   51.4090 C.ar    0  <0>0       -0.0029
     12  C6        -1.6580   28.2700   52.0300 C.ar    0  <0>0        0.0199
     13  N2        -1.2090   29.8310   56.7040 N.2     0  <0>0       -0.1740
     14  C8        -1.1870   28.8720   57.5520 C.2     0  <0>0        0.0546
     15  C13       -0.3940   28.9870   58.8300 C.3     0  <0>0        0.0331
     16  C9        -1.9510   27.5910   57.2970 C.3     0  <0>0        0.0429
     17  C12       -1.2840   28.6090   60.0180 C.3     0  <0>0        0.0053
     18  C17        0.8360   28.0700   58.7700 C.3     0  <0>0        0.0053
     19  C14        0.1260   30.4250   58.9950 C.3     0  <0>0        0.0053
     20  C11       -1.8980   27.2290   59.7700 C.3     0  <0>0        0.0008
     21  C10       -2.7980   27.2760   58.5350 C.3     0  <0>0        0.0060
     22  C16        2.0710   28.9870   58.8970 C.3     0  <0>0        0.0004
     23  C15        1.5350   30.2500   59.6150 C.3     0  <0>0        0.0004
@<TRIPOS>BOND
     1    10     9    1
     2    11    12   ar
     3    11     9   ar
     4    12     6   ar
     5     9     8   ar
     6     6     7   ar
     7     6     3    1
     8     8     7   ar
     9     5     3    2
    10     3     4    2
    11     3     1    1
    12     1     2    1
    13     1    13    1
    14    13    14    2
    15    16    14    1
    16    16    21    1
    17    14    15    1
    18    21    20    1
    19    18    15    1
    20    18    22    1
    21    15    19    1
    22    15    17    1
    23    22    23    1
    24    19    23    1
    25    20    17    1
