@<TRIPOS>MOLECULE
ZINC15772557_replica-1.pdb
 23 25 0 0 0
SMALL
GASTEIGER

@<TRIPOS>ATOM
      1  C1        -0.7280   25.1720   51.3390 C.3     0  <0>0        0.0312
      2  C2        -0.4020   25.9410   52.5930 C.2     0  <0>0       -0.0167
      3  C3         0.0870   25.2700   53.7250 C.2     0  <0>0        0.0120
      4  C4         0.3800   25.9560   54.8500 C.2     0  <0>0        0.0674
      5  N1         0.2060   27.3090   54.9040 N.pl3   0  <0>0       -0.2540
      6  C5        -0.2660   27.9930   53.8130 C.2     0  <0>0        0.1869
      7  C6        -0.5810   27.2890   52.6330 C.2     0  <0>0        0.0438
      8  N2        -0.3450   29.2770   54.1290 N.2     0  <0>0       -0.3862
      9  C7         0.0700   29.4460   55.3960 C.2     0  <0>0        0.1656
     10  C8         0.4190   28.2250   55.8970 C.3     0  <0>0        0.1650
     11  C9         0.9400   27.9410   57.2810 C.3     0  <0>0        0.1781
     12  C10       -0.2360   27.6890   58.2270 C.3     0  <0>0        0.2242
     13 Cl         -0.0620   26.0620   58.9840 Cl      0  <0>0       -0.0800
     14 Cl         -0.2540   28.9510   59.5140 Cl      0  <0>0       -0.0800
     15 Cl         -1.7800   27.7590   57.2970 Cl      0  <0>0       -0.0800
     16  O1         1.6950   29.0610   57.7460 O.3     0  <0>0       -0.3788
     17  H8         1.1560   29.8350   57.9630 H       0  <0>0        0.2106
     18  C11        0.1380   30.7320   56.1210 C.ar    0  <0>0        0.1730
     19  O2         1.1950   31.5690   56.1490 O.2     0  <0>0       -0.4446
     20  C14        0.8980   32.6380   56.9060 C.ar    0  <0>0        0.1792
     21  C13       -0.3590   32.4980   57.3750 C.ar    0  <0>0        0.0477
     22 Br          2.0500   34.0960   57.2570 Br      0  <0>0       -0.0078
     23  C12       -0.8540   31.2780   56.8710 C.ar    0  <0>0        0.0436
@<TRIPOS>BOND
     1     1     2    1
     2     2     7    2
     3     2     3    1
     4     7     6    1
     5     3     4    2
     6     6     8    2
     7     6     5    1
     8     8     9    2
     9     4     5    1
    10     5    10    1
    11     9    10    1
    12     9    18    1
    13    10    11    1
    14    18    19   ar
    15    18    23   ar
    16    19    20   ar
    17    23    21   ar
    18    20    22    1
    19    20    21   ar
    20    11    16    1
    21    11    12    1
    22    15    12    1
    23    16    17    1
    24    12    13    1
    25    12    14    1
