@<TRIPOS>MOLECULE
ZINC26533764_replica-1.pdb
 25 28 0 0 0
SMALL
GASTEIGER

@<TRIPOS>ATOM
      1  C8         0.9120   31.4130   59.8740 C.2     0  <0>0        0.0114
      2  C9         0.4370   30.7030   58.8160 C.ar    0  <0>0        0.0912
      3  C10        0.8100   30.7760   57.3980 C.ar    0  <0>0        0.2895
      4  O1         1.6600   31.5570   57.0110 O.2     0  <0>0       -0.2645
      5  N1         0.1880   29.9520   56.5450 N.ar    0  <0>0       -0.1500
      6  C11       -0.7590   29.0930   57.0290 C.ar    0  <0>0        0.2606
      7  S2        -0.8130   29.4260   58.7740 S.2     0  <0>0       -0.0299
      8  N2        -1.2450   28.3800   56.0520 N.2     0  <0>0       -0.3225
      9  C12       -0.6480   28.7340   54.9050 C.1     0  <0>0        0.1084
     10  N3         0.2260   29.6800   55.1490 N.2     0  <0>0       -0.0937
     11  C5         1.8210   32.5410   59.6500 C.ar    0  <0>0        0.0007
     12  C4         1.3080   33.8020   59.3170 C.ar    0  <0>0        0.0005
     13  C3         2.1580   34.8510   59.1110 C.ar    0  <0>0        0.0061
     14  C2         3.5340   34.6690   59.2310 C.ar    0  <0>0        0.0252
     15  C7         4.0490   33.4170   59.5630 C.ar    0  <0>0        0.0061
     16  C6         3.2050   32.3640   59.7760 C.ar    0  <0>0        0.0005
     17  S1         4.6260   36.0250   58.9650 S.3     0  <0>0       -0.1127
     18  C1         5.9120   35.8090   60.2270 C.3     0  <0>0        0.0742
     19  C13       -0.9310   28.1500   53.5720 C.ar    0  <0>0        0.0818
     20  C18       -0.4120   26.9010   53.2310 C.ar    0  <0>0        0.0449
     21  C17       -0.6830   26.3600   51.9890 C.ar    0  <0>0        0.0074
     22 Br          0.6550   25.9480   54.4670 Br      0  <0>0       -0.0483
     23  C16       -1.4580   27.0580   51.0810 C.ar    0  <0>0        0.0005
     24  C15       -1.9710   28.3000   51.4130 C.ar    0  <0>0        0.0007
     25  C14       -1.7110   28.8490   52.6520 C.ar    0  <0>0        0.0116
@<TRIPOS>BOND
     1    23    24   ar
     2    23    21   ar
     3    24    25   ar
     4    21    20   ar
     5    25    19   ar
     6    20    19   ar
     7    20    22    1
     8    19     9    1
     9     9    10    2
    10     9     8    2
    11    10     5    1
    12     8     6    2
    13     5     6   ar
    14     5     3   ar
    15     4     3    2
    16     6     7   ar
    17     3     2   ar
    18     7     2   ar
    19     2     1    2
    20    17    14    1
    21    17    18    1
    22    13    14   ar
    23    13    12   ar
    24    14    15   ar
    25    12    11   ar
    26    15    16   ar
    27    11    16   ar
    28    11     1    1
