@<TRIPOS>MOLECULE
ZINC35133310_replica-1.pdb
 22 22 0 0 0
SMALL
GASTEIGER

@<TRIPOS>ATOM
      1  S1         8.1680   35.4980   56.9540 S.O2    0  <0>0        0.0607
      2  O1         8.5220   34.1470   56.6920 O.2     0  <0>0       -0.1530
      3  O2         8.4810   36.5560   56.0570 O.2     0  <0>0       -0.1530
      4  N1         6.5260   35.5250   57.1620 N.3     0  <0>0       -0.1808
      5  H16        5.9510   35.8350   56.4440 H       0  <0>0        0.1487
      6  C2         5.9400   35.0810   58.4290 C.3     0  <0>0        0.0755
      7  C1         5.5020   33.6200   58.3040 C.3     0  <0>0        0.0188
      8  C3         4.7260   35.9500   58.7620 C.3     0  <0>0        0.0174
      9  C4         3.7290   35.9000   57.6030 C.3     0  <0>0        0.0014
     10  C5         2.3040   36.0000   58.1510 C.3     0  <0>0        0.0000
     11  C6         1.3030   35.8040   57.0100 C.3     0  <0>0        0.0000
     12  C7         2.0880   34.9180   59.2110 C.3     0  <0>0        0.0000
     13  C8         8.8960   35.9180   58.5020 C.ar    0  <0>0        0.1283
     14  C13        8.7570   37.2000   59.0060 C.ar    0  <0>0        0.0531
     15  C12        9.3220   37.5360   60.2260 C.ar    0  <0>0        0.0083
     16 Br          7.7840   38.4950   58.0300 Br      0  <0>0       -0.0476
     17  C11       10.0370   36.6000   60.9400 C.ar    0  <0>0        0.0072
     18  C10       10.1880   35.3050   60.4330 C.ar    0  <0>0        0.0811
     19  C9         9.6100   34.9710   59.2060 C.ar    0  <0>0        0.0270
     20  C14       10.9520   34.2970   61.1920 C.2     0  <0>0        0.3878
     21  O3        12.0980   34.5370   61.5440 O.co2   0  <0>0       -0.2406
     22  O4        10.4380   33.2220   61.4690 O.co2   0  <0>0       -0.2406
@<TRIPOS>BOND
     1     3     1    2
     2     5     4    1
     3     2     1    2
     4     1     4    1
     5     1    13    1
     6    11    10    1
     7     4     6    1
     8     9    10    1
     9     9     8    1
    10    16    14    1
    11    10    12    1
    12     7     6    1
    13     6     8    1
    14    13    14   ar
    15    13    19   ar
    16    14    15   ar
    17    19    18   ar
    18    15    17   ar
    19    18    17   ar
    20    18    20    1
    21    20    22   ar
    22    20    21   ar
