@<TRIPOS>MOLECULE
ZINC67339890_replica-1.pdb
 21 23 0 0 0
SMALL
GASTEIGER

@<TRIPOS>ATOM
      1  C9        -0.4030   30.5800   54.6860 C.2     0  <0>0        0.0422
      2  C10        0.5070   30.6800   55.6860 C.2     0  <0>0        0.0612
      3  C8        -0.5400   29.3280   53.9470 C.ar    0  <0>0        0.1455
      4  C7         0.0230   28.1390   54.3040 C.ar    0  <0>0        0.0405
      5  C4        -0.3810   27.1760   53.2810 C.ar    0  <0>0        0.0381
      6  C3        -1.1770   27.8970   52.3710 C.ar    0  <0>0        0.1453
      7  C5        -0.1390   25.8150   53.0750 C.ar    0  <0>0        0.0098
      8  C2        -1.7150   27.2390   51.2730 C.ar    0  <0>0        0.0380
      9  O1        -1.2450   29.1710   52.8070 O.2     0  <0>0       -0.4535
     10  C1        -1.4650   25.8950   51.0870 C.ar    0  <0>0        0.0098
     11  C6        -0.6790   25.1890   51.9870 C.ar    0  <0>0        0.0348
     12 Br         -0.3540   23.3470   51.7060 Br      0  <0>0       -0.0490
     13  C11        0.6400   31.8960   56.4030 C.2     0  <0>0        0.2512
     14  O2        -0.1590   32.1780   57.2760 O.2     0  <0>0       -0.2698
     15  N1         1.6540   32.7370   56.1200 N.am    0  <0>0       -0.2606
     16  H7         2.2910   32.5120   55.4240 H       0  <0>0        0.1571
     17  C12        1.7860   33.9270   56.8220 C.ar    0  <0>0        0.1658
     18  S1         2.6610   34.2210   58.2290 S.2     0  <0>0       -0.0508
     19  C14        2.2750   35.9550   58.4020 C.ar    0  <0>0        0.0588
     20  C13        1.4750   36.1450   57.3240 C.ar    0  <0>0        0.1079
     21  N2         1.2520   35.0990   56.5500 N.ar    0  <0>0       -0.2224
@<TRIPOS>BOND
     1    10     8   ar
     2    10    11   ar
     3     8     6   ar
     4    12    11    1
     5    11     7   ar
     6     6     9   ar
     7     6     5   ar
     8     9     3   ar
     9     7     5   ar
    10     5     4   ar
    11     3     4   ar
    12     3     1    1
    13     1     2    2
    14    16    15    1
    15     2    13    1
    16    15    13   am
    17    15    17    1
    18    13    14    2
    19    21    17   ar
    20    21    20   ar
    21    17    18   ar
    22    20    19   ar
    23    18    19   ar
