@<TRIPOS>MOLECULE
ZINC21050735_replica-1.pdb
 21 22 0 0 0
SMALL
GASTEIGER

@<TRIPOS>ATOM
      1  N1         0.4380   29.8550   54.8990 N.pl3   0  <0>0       -0.3308
      2  H14        1.2980   29.5880   54.2670 H       0  <0>0        0.1471
      3  C3        -0.9010   29.3640   54.5610 C.3     0  <0>0        0.0918
      4  C2        -1.6690   30.4550   53.8110 C.3     0  <0>0        0.0241
      5  C1        -3.0150   30.6950   54.4990 C.3     0  <0>0        0.0021
      6  C4        -0.7820   28.1420   53.6880 C.ar    0  <0>0       -0.0046
      7  C9        -1.3680   28.1260   52.4360 C.ar    0  <0>0       -0.0030
      8  C8        -1.2570   27.0060   51.6350 C.ar    0  <0>0       -0.0045
      9  C7        -0.5600   25.9000   52.0850 C.ar    0  <0>0       -0.0219
     10  C6         0.0260   25.9160   53.3370 C.ar    0  <0>0       -0.0045
     11  C10       -0.4410   24.6780   51.2110 C.3     0  <0>0        0.0310
     12  C5        -0.0800   27.0380   54.1360 C.ar    0  <0>0       -0.0030
     13  C11        0.6220   30.6610   56.0250 C.ar    0  <0>0        0.0408
     14  C16        0.4900   30.1190   57.2980 C.ar    0  <0>0       -0.0094
     15  C15        0.6770   30.9190   58.4080 C.ar    0  <0>0       -0.0031
     16  C14        0.9860   32.2580   58.2550 C.ar    0  <0>0       -0.0002
     17  C13        1.1130   32.8010   56.9900 C.ar    0  <0>0        0.0012
     18  C12        0.9320   32.0070   55.8740 C.ar    0  <0>0        0.0140
     19  C17        0.1490   28.6610   57.4650 C.3     0  <0>0        0.0236
     20  C18        1.2920   27.9500   58.1920 C.3     0  <0>0        0.0047
     21  C19       -1.1360   28.5300   58.2840 C.3     0  <0>0        0.0047
@<TRIPOS>BOND
     1    11     9    1
     2     8     9   ar
     3     8     7   ar
     4     9    10   ar
     5     7     6   ar
     6    10    12   ar
     7     6    12   ar
     8     6     3    1
     9     4     5    1
    10     4     3    1
    11     2     1    1
    12     3     1    1
    13     1    13    1
    14    18    13   ar
    15    18    17   ar
    16    13    14   ar
    17    17    16   ar
    18    14    19    1
    19    14    15   ar
    20    19    20    1
    21    19    21    1
    22    16    15   ar
