@<TRIPOS>MOLECULE
ZINC14241916_replica-1.pdb
 24 26 0 0 0
SMALL
GASTEIGER

@<TRIPOS>ATOM
      1  C10        8.1360   37.5690   58.5050 C.2     0  <0>0        0.2445
      2  O2         8.4090   38.6510   58.0170 O.2     0  <0>0       -0.2818
      3  C9         9.0590   36.9410   59.4610 C.ar    0  <0>0        0.1814
      4  C2         9.5720   35.6880   59.3440 C.ar    0  <0>0        0.0189
      5  C1         9.3110   34.7000   58.2370 C.3     0  <0>0        0.0344
      6  C3        10.4330   35.4930   60.5100 C.ar    0  <0>0        0.0341
      7  C8        10.3480   36.6870   61.2500 C.ar    0  <0>0        0.1452
      8  C4        11.2310   34.4400   60.9660 C.ar    0  <0>0        0.0095
      9  C7        11.0660   36.8010   62.4350 C.ar    0  <0>0        0.0380
     10  O1         9.5200   37.5190   60.5890 O.2     0  <0>0       -0.4505
     11  C6        11.8480   35.7520   62.8690 C.ar    0  <0>0        0.0098
     12  C5        11.9280   34.5760   62.1350 C.ar    0  <0>0        0.0348
     13 Br         13.0090   33.1540   62.7550 Br      0  <0>0       -0.0490
     14  C11        6.8880   36.8910   58.1340 C.ar    0  <0>0        0.0950
     15  N1         6.5120   36.5360   56.8560 N.ar    0  <0>0       -0.3540
     16  C14        5.3130   35.9370   56.8970 C.ar    0  <0>0        0.0365
     17  H1         7.0340   36.6950   56.0540 H       0  <0>0        0.1657
     18  C13        4.8900   35.8940   58.2180 C.ar    0  <0>0        0.0437
     19  C15        4.5550   35.4000   55.7100 C.3     0  <0>0        0.0499
     20  C12        5.9050   36.4990   58.9960 C.ar    0  <0>0        0.0008
     21  C18        5.9000   36.6810   60.4920 C.3     0  <0>0        0.0328
     22  C16        3.6340   35.3240   58.7130 C.2     0  <0>0        0.1743
     23  O3         3.6280   34.2270   59.2310 O.2     0  <0>0       -0.2913
     24  C17        2.3490   36.0990   58.5770 C.3     0  <0>0        0.0773
@<TRIPOS>BOND
     1    19    16    1
     2    17    15    1
     3    15    16   ar
     4    15    14   ar
     5    16    18   ar
     6     2     1    2
     7    14     1    1
     8    14    20   ar
     9    18    22    1
    10    18    20   ar
    11     5     4    1
    12     1     3    1
    13    24    22    1
    14    22    23    2
    15    20    21    1
    16     4     3   ar
    17     4     6   ar
    18     3    10   ar
    19     6     8   ar
    20     6     7   ar
    21    10     7   ar
    22     8    12   ar
    23     7     9   ar
    24    12    13    1
    25    12    11   ar
    26     9    11   ar
