@<TRIPOS>MOLECULE
ZINC19989366_replica-1.pdb
 21 22 0 0 0
SMALL
GASTEIGER

@<TRIPOS>ATOM
      1  C9        10.0080   34.2810   61.1510 C.3     0  <0>0        0.1699
      2  C10        9.3420   33.1490   60.4870 C.1     0  <0>0        0.0930
      3  N1         8.8280   32.2750   59.9740 N.1     0  <0>0       -0.1941
      4  C6        11.2360   33.7890   61.8720 C.ar    0  <0>0        0.0063
      5  C5        12.3890   34.5530   61.8760 C.ar    0  <0>0       -0.0023
      6  C4        13.5150   34.1030   62.5380 C.ar    0  <0>0       -0.0045
      7  C3        13.4900   32.8880   63.1960 C.ar    0  <0>0       -0.0222
      8  C8        12.3380   32.1240   63.1930 C.ar    0  <0>0       -0.0045
      9  C7        11.2090   32.5770   62.5360 C.ar    0  <0>0       -0.0023
     10  C2        14.7180   32.3960   63.9180 C.3     0  <0>0        0.0264
     11  C1        15.4470   33.5830   64.5530 C.3     0  <0>0        0.0050
     12  N2        10.3980   35.2770   60.1450 N.3     0  <0>0       -0.2794
     13  H11       11.4860   35.4320   60.1840 H       0  <0>0        0.1248
     14  C11        9.7310   36.5630   60.3900 C.3     0  <0>0        0.0966
     15  C12        9.0430   37.0220   59.1310 C.ar    0  <0>0       -0.0064
     16  C17        8.8650   36.1410   58.0810 C.ar    0  <0>0       -0.0032
     17  C16        8.2340   36.5620   56.9250 C.ar    0  <0>0       -0.0045
     18  C15        7.7810   37.8640   56.8200 C.ar    0  <0>0       -0.0219
     19  C14        7.9590   38.7450   57.8700 C.ar    0  <0>0       -0.0045
     20  C18        7.0930   38.3230   55.5590 C.3     0  <0>0        0.0310
     21  C13        8.5870   38.3230   59.0270 C.ar    0  <0>0       -0.0032
@<TRIPOS>BOND
     1    20    18    1
     2    18    17   ar
     3    18    19   ar
     4    17    16   ar
     5    19    21   ar
     6    16    15   ar
     7    21    15   ar
     8    15    14    1
     9     3     2    3
    10    12    13    1
    11    12    14    1
    12    12     1    1
    13     2     1    1
    14     1     4    1
    15     4     5   ar
    16     4     9   ar
    17     5     6   ar
    18     9     8   ar
    19     6     7   ar
    20     8     7   ar
    21     7    10    1
    22    10    11    1
