@<TRIPOS>MOLECULE
ZINC27572863_replica-1.pdb
 31 35 0 0 0
SMALL
GASTEIGER

@<TRIPOS>ATOM
      1  C7         0.5510   33.7290   58.2100 C.2     0  <0>0        0.1567
      2  C8         0.6350   32.3380   57.7590 C.2     0  <0>0        0.0174
      3  C9         0.5640   31.3220   58.7100 C.2     0  <0>0       -0.0158
      4  C10        0.4110   31.6830   60.0590 C.3     0  <0>0        0.0960
      5  C11        0.3340   30.6980   61.0610 C.2     0  <0>0       -0.0150
      6  C12        0.1860   31.0680   62.3620 C.2     0  <0>0       -0.0038
      7  C13        0.1080   32.4130   62.7160 C.2     0  <0>0        0.0020
      8  C14        0.1780   33.3930   61.7730 C.2     0  <0>0        0.0282
      9  C15        0.3310   33.0520   60.4180 C.2     0  <0>0        0.1173
     10  N1         0.4010   34.0110   59.4860 N.2     0  <0>0       -0.3994
     11  C16        0.7950   32.0240   56.3410 C.3     0  <0>0        0.0950
     12  C17       -0.0050   31.0650   55.7510 C.2     0  <0>0        0.1924
     13  N2         0.3970   30.0130   54.9820 N.2     0  <0>0       -0.3648
     14  C19       -0.6520   29.3310   54.6100 C.2     0  <0>0        0.2843
     15  O2        -1.7880   29.8670   55.0980 O.3     0  <0>0       -0.3911
     16  C18       -1.4740   30.9630   55.8220 C.2     0  <0>0        0.3738
     17  O1        -2.2390   31.7040   56.4090 O.2     0  <0>0       -0.2419
     18  C20       -0.5990   28.1220   53.7650 C.ar    0  <0>0        0.0665
     19  C25        0.0740   26.9830   54.2150 C.ar    0  <0>0        0.0066
     20  C24        0.1200   25.8560   53.4210 C.ar    0  <0>0        0.0116
     21  C23       -0.4990   25.8520   52.1820 C.ar    0  <0>0        0.0577
     22  C22       -1.1680   26.9780   51.7320 C.ar    0  <0>0        0.0116
     23 Cl         -0.4370   24.4280   51.1900 Cl      0  <0>0       -0.0822
     24  C21       -1.2260   28.1090   52.5170 C.ar    0  <0>0        0.0066
     25  S1         0.6440   35.0360   57.0320 S.3     0  <0>0       -0.0558
     26  C4         2.3760   35.3590   57.0710 C.ar    0  <0>0        0.0318
     27  C3         3.1220   35.2940   55.9010 C.ar    0  <0>0        0.0066
     28  C2         4.4800   35.5480   55.9360 C.ar    0  <0>0        0.0005
     29  C1         5.0950   35.8670   57.1320 C.ar    0  <0>0        0.0000
     30  C6         4.3550   35.9340   58.2990 C.ar    0  <0>0        0.0005
     31  C5         2.9960   35.6860   58.2700 C.ar    0  <0>0        0.0066
@<TRIPOS>BOND
     1    23    21    1
     2    22    21   ar
     3    22    24   ar
     4    21    20   ar
     5    24    18   ar
     6    20    19   ar
     7    18    19   ar
     8    18    14    1
     9    14    13    2
    10    14    15    1
    11    13    12    2
    12    15    16    1
    13    12    16    1
    14    12    11    1
    15    16    17    2
    16    27    28   ar
    17    27    26   ar
    18    28    29   ar
    19    11     2    1
    20    25    26    1
    21    25     1    1
    22    26    31   ar
    23    29    30   ar
    24     2     1    1
    25     2     3    2
    26     1    10    2
    27    31    30   ar
    28     3     4    1
    29    10     9    2
    30     4     9    1
    31     4     5    1
    32     9     8    1
    33     5     6    2
    34     8     7    2
    35     6     7    1
