@<TRIPOS>MOLECULE
ZINC20528808_replica-1.pdb
 37 41 0 0 0
SMALL
GASTEIGER

@<TRIPOS>ATOM
      1  N1         5.8640   33.0340   58.9480 N.3     0  <0>0       -0.2614
      2  C8         5.9190   34.4910   59.1690 C.3     0  <0>0        0.1027
      3  C9         4.8610   35.1130   58.2830 C.2     0  <0>0        0.0280
      4  C10        5.0970   36.2530   57.6100 C.2     0  <0>0        0.0009
      5  C17        3.5590   34.4220   58.1850 C.2     0  <0>0        0.1381
      6  C18        3.4260   33.1910   58.6820 C.2     0  <0>0        0.0147
      7  C19        4.5710   32.4950   59.3720 C.3     0  <0>0        0.0990
      8  C20        2.1090   32.4620   58.5730 C.3     0  <0>0        0.0820
      9  C21        1.2430   33.1040   57.5250 C.2     0  <0>0        0.1024
     10  C22        1.4960   34.3580   57.0870 C.2     0  <0>0        0.1988
     11  O1         2.5300   35.0630   57.5790 O.2     0  <0>0       -0.4409
     12  C23        0.1340   32.3800   56.9810 C.1     0  <0>0        0.1011
     13  N3        -0.7460   31.8060   56.5500 N.1     0  <0>0       -0.1910
     14  C24        1.4010   32.5100   59.9010 C.ar    0  <0>0       -0.0031
     15  C29        1.2690   31.3570   60.6560 C.ar    0  <0>0        0.0543
     16  C28        0.6180   31.4020   61.8760 C.ar    0  <0>0        0.0111
     17 Cl          1.9190   29.8580   60.0740 Cl      0  <0>0       -0.0826
     18  C27        0.1000   32.5960   62.3400 C.ar    0  <0>0        0.0008
     19  C26        0.2330   33.7480   61.5860 C.ar    0  <0>0       -0.0002
     20  C25        0.8830   33.7040   60.3660 C.ar    0  <0>0       -0.0028
     21  N2         0.6880   34.9190   56.1290 N.pl3   0  <0>0       -0.3284
     22  H18       -0.2440   34.4150   55.8320 H       0  <0>0        0.1451
     23  H19        0.9720   35.8710   55.6580 H       0  <0>0        0.1451
     24  C7         6.9700   32.3550   59.6370 C.3     0  <0>0        0.0996
     25  C4         8.1710   33.2650   59.6800 C.ar    0  <0>0       -0.0061
     26  C3         8.9070   33.3810   60.8440 C.ar    0  <0>0       -0.0029
     27  C2        10.0090   34.2160   60.8840 C.ar    0  <0>0       -0.0003
     28  C1        10.3720   34.9350   59.7600 C.ar    0  <0>0       -0.0000
     29  C6         9.6340   34.8200   58.5980 C.ar    0  <0>0       -0.0003
     30  C5         8.5360   33.9810   58.5550 C.ar    0  <0>0       -0.0029
     31  C11        6.3400   37.0070   57.8510 C.ar    0  <0>0        0.0104
     32  C16        7.2870   37.1450   56.8300 C.ar    0  <0>0        0.0576
     33  C15        8.4490   37.8530   57.0650 C.ar    0  <0>0        0.0114
     34 Cl          7.0000   36.4310   55.2750 Cl      0  <0>0       -0.0822
     35  C14        8.6780   38.4230   58.3040 C.ar    0  <0>0        0.0009
     36  C13        7.7450   38.2900   59.3190 C.ar    0  <0>0        0.0001
     37  C12        6.5770   37.5910   59.0990 C.ar    0  <0>0        0.0008
@<TRIPOS>BOND
     1    34    32    1
     2    23    21    1
     3    22    21    1
     4    21    10    1
     5    13    12    3
     6    32    33   ar
     7    32    31   ar
     8    12     9    1
     9    33    35   ar
    10    10     9    2
    11    10    11    1
    12     9     8    1
    13    11     5    1
    14     4    31    1
    15     4     3    2
    16    31    37   ar
    17     5     3    1
    18     5     6    2
    19     3     2    1
    20    35    36   ar
    21    30    29   ar
    22    30    25   ar
    23     8     6    1
    24     8    14    1
    25    29    28   ar
    26     6     7    1
    27     1     2    1
    28     1     7    1
    29     1    24    1
    30    37    36   ar
    31    24    25    1
    32    25    26   ar
    33    28    27   ar
    34    14    20   ar
    35    14    15   ar
    36    17    15    1
    37    20    19   ar
    38    15    16   ar
    39    26    27   ar
    40    19    18   ar
    41    16    18   ar
