@<TRIPOS>MOLECULE
ZINC34990204_replica-1.pdb
 22 23 0 0 0
SMALL
GASTEIGER

@<TRIPOS>ATOM
      1  N1        -0.7820   28.2880   55.4700 N.pl3   0  <0>0       -0.3299
      2  H14       -1.6600   27.9330   55.6810 H       0  <0>0        0.1471
      3  C4         0.1370   27.5130   54.6320 C.3     0  <0>0        0.0919
      4  C3         0.4730   26.1940   55.3290 C.3     0  <0>0        0.0241
      5  C2         0.4560   26.3980   56.8450 C.3     0  <0>0        0.0020
      6  C1        -0.2590   25.2200   57.5100 C.3     0  <0>0        0.0001
      7  C5        -0.5130   27.2290   53.3020 C.ar    0  <0>0       -0.0046
      8  C10       -0.3960   25.9770   52.7290 C.ar    0  <0>0       -0.0027
      9  C9        -0.9970   25.7150   51.5110 C.ar    0  <0>0       -0.0003
     10  C8        -1.7060   26.7080   50.8640 C.ar    0  <0>0       -0.0000
     11  C7        -1.8190   27.9620   51.4340 C.ar    0  <0>0       -0.0003
     12  C6        -1.2220   28.2220   52.6530 C.ar    0  <0>0       -0.0027
     13  C11       -0.3950   29.5370   55.9610 C.ar    0  <0>0        0.0556
     14  C16       -0.7370   29.9130   57.2550 C.ar    0  <0>0        0.0724
     15  C15       -0.3490   31.1470   57.7400 C.ar    0  <0>0        0.0367
     16 Cl         -1.6480   28.8310   58.2620 Cl      0  <0>0       -0.0809
     17  C14        0.3720   32.0110   56.9350 C.ar    0  <0>0        0.1438
     18  C13        0.7090   31.6420   55.6470 C.ar    0  <0>0        0.0254
     19  C12        0.3280   30.4080   55.1570 C.ar    0  <0>0        0.0169
     20  N2         0.7830   33.3350   57.4570 N.pl3   0  <0>0        0.0577
     21  O1         0.6110   34.3270   56.7880 O.2     0  <0>0       -0.1261
     22  O2         1.2910   33.4230   58.5500 O.2     0  <0>0       -0.1261
@<TRIPOS>BOND
     1    10    11   ar
     2    10     9   ar
     3    11    12   ar
     4     9     8   ar
     5    12     7   ar
     6     8     7   ar
     7     7     3    1
     8     3     4    1
     9     3     1    1
    10    19    18   ar
    11    19    13   ar
    12     4     5    1
    13     1     2    1
    14     1    13    1
    15    18    17   ar
    16    13    14   ar
    17    21    20    2
    18     5     6    1
    19    17    20    1
    20    17    15   ar
    21    14    15   ar
    22    14    16    1
    23    20    22    2
