@<TRIPOS>MOLECULE
ZINC05886383_replica-1.pdb
 26 29 0 0 0
SMALL
GASTEIGER

@<TRIPOS>ATOM
      1  C7         5.8990   35.3310   58.1440 C.3     0  <0>0        0.0580
      2  C8         4.4200   35.6620   57.9200 C.3     0  <0>0        0.0943
      3  C9         4.1270   35.8820   56.4620 C.2     0  <0>0        0.2278
      4  O1         3.0810   35.4720   56.0040 O.2     0  <0>0       -0.2747
      5  N1         4.9920   36.5200   55.6460 N.am    0  <0>0       -0.2700
      6  C10        6.2670   36.8100   56.1350 C.ar    0  <0>0        0.1250
      7  C11        6.7280   36.2730   57.3080 C.ar    0  <0>0        0.0325
      8  C12        8.0200   36.7560   57.5240 C.ar    0  <0>0        0.0997
      9  N2         8.3370   37.5400   56.5110 N.ar    0  <0>0       -0.1719
     10  N3         7.2470   37.5770   55.6220 N.ar    0  <0>0       -0.2631
     11  H2         7.2090   38.0680   54.7850 H       0  <0>0        0.1903
     12  H9         4.7360   36.7720   54.7450 H       0  <0>0        0.1562
     13  C3         6.1700   33.9080   57.7270 C.ar    0  <0>0       -0.0156
     14  C2         7.1410   33.6390   56.7820 C.ar    0  <0>0       -0.0038
     15  C1         7.3910   32.3350   56.3980 C.ar    0  <0>0        0.0020
     16  C6         6.6700   31.2980   56.9610 C.ar    0  <0>0        0.0296
     17  C5         5.6970   31.5670   57.9080 C.ar    0  <0>0        0.1398
     18  C4         5.4480   32.8740   58.2900 C.ar    0  <0>0        0.0257
     19  F1         4.9920   30.5550   58.4590 F       0  <0>0       -0.2042
     20  C13        8.8850   36.4420   58.6890 C.ar    0  <0>0        0.0192
     21  C18        8.9920   37.3470   59.7440 C.ar    0  <0>0        0.0024
     22  C17        9.7930   37.0480   60.8270 C.ar    0  <0>0        0.0114
     23  C16       10.4990   35.8580   60.8610 C.ar    0  <0>0        0.0577
     24  C15       10.4000   34.9590   59.8140 C.ar    0  <0>0        0.0114
     25 Cl         11.5110   35.4920   62.2240 Cl      0  <0>0       -0.0822
     26  C14        9.5960   35.2450   58.7290 C.ar    0  <0>0        0.0024
@<TRIPOS>BOND
     1    12     5    1
     2    11    10    1
     3    10     6   ar
     4    10     9   ar
     5     5     6    1
     6     5     3   am
     7     4     3    2
     8     6     7   ar
     9    15    14   ar
    10    15    16   ar
    11     3     2    1
    12     9     8   ar
    13    14    13   ar
    14    16    17   ar
    15     7     8   ar
    16     7     1    1
    17     8    20    1
    18    13     1    1
    19    13    18   ar
    20    17    18   ar
    21    17    19    1
    22     2     1    1
    23    20    26   ar
    24    20    21   ar
    25    26    24   ar
    26    21    22   ar
    27    24    23   ar
    28    22    23   ar
    29    23    25    1
