@<TRIPOS>MOLECULE
ZINC13389742_replica-1.pdb
 26 28 0 0 0
SMALL
GASTEIGER

@<TRIPOS>ATOM
      1  C12        1.5010   31.9860   56.2890 C.2     0  <0>0        0.2340
      2  O1         2.0290   31.4960   57.2650 O.2     0  <0>0       -0.2741
      3  N1         1.7870   33.2540   55.9340 N.am    0  <0>0       -0.3005
      4  H11        1.4210   33.6230   55.1150 H       0  <0>0        0.1497
      5  C11        0.5260   31.1760   55.4740 C.3     0  <0>0        0.1469
      6  S1         0.0010   29.7240   56.4250 S.3     0  <0>0       -0.1039
      7  C6        -0.1090   28.4420   55.2220 C.ar    0  <0>0        0.0257
      8  C5        -0.7910   28.6660   54.0460 C.ar    0  <0>0        0.0062
      9  C4        -0.8770   27.6410   53.0910 C.ar    0  <0>0        0.0005
     10  C3        -1.5620   27.8310   51.8780 C.ar    0  <0>0        0.0000
     11  C9        -0.2590   26.3910   53.3500 C.ar    0  <0>0        0.0000
     12  C2        -1.6250   26.8170   50.9730 C.ar    0  <0>0        0.0000
     13  C1        -1.0180   25.5880   51.2290 C.ar    0  <0>0        0.0000
     14  C10       -0.3460   25.3680   52.3920 C.ar    0  <0>0        0.0000
     15  C8         0.4290   26.1970   54.5620 C.ar    0  <0>0        0.0005
     16  C7         0.5020   27.2060   55.4690 C.ar    0  <0>0        0.0062
     17  C13        2.6520   34.0760   56.7840 C.3     0  <0>0        0.1113
     18  C14        1.9080   35.3520   57.1840 C.3     0  <0>0        0.1386
     19  C15        0.9390   35.0410   58.2950 C.2     0  <0>0        0.3669
     20  O2        -0.0140   34.3280   58.0850 O.co2   0  <0>0       -0.2456
     21  O3         1.1340   35.5570   59.5200 O.co2   0  <0>0       -0.2456
     22  C16        3.9020   34.4400   56.0250 C.ar    0  <0>0        0.0256
     23  S2         5.4960   34.9370   56.6570 S.2     0  <0>0       -0.0891
     24  C19        6.3290   35.1560   55.0920 C.ar    0  <0>0        0.0352
     25  C18        5.3520   34.8410   54.2080 C.ar    0  <0>0        0.0072
     26  C17        4.1080   34.4740   54.6850 C.ar    0  <0>0        0.0043
@<TRIPOS>BOND
     1    12    13   ar
     2    12    10   ar
     3    13    14   ar
     4    10     9   ar
     5    14    11   ar
     6     9    11   ar
     7     9     8   ar
     8    11    15   ar
     9     8     7   ar
    10    25    26   ar
    11    25    24   ar
    12    15    16   ar
    13    26    22   ar
    14    24    23   ar
    15     4     3    1
    16     7    16   ar
    17     7     6    1
    18     5     1    1
    19     5     6    1
    20     3     1   am
    21     3    17    1
    22    22    23   ar
    23    22    17    1
    24     1     2    2
    25    17    18    1
    26    18    19    1
    27    20    19   ar
    28    19    21   ar
