@<TRIPOS>MOLECULE
ZINC00477681_replica-1.pdb
 22 25 0 0 0
SMALL
GASTEIGER

@<TRIPOS>ATOM
      1  N1         6.5010   35.7470   58.2360 N.am    0  <0>0       -0.2070
      2  C8         5.4400   35.2600   58.9080 C.2     0  <0>0        0.2459
      3  O1         5.5500   34.9130   60.0710 O.2     0  <0>0       -0.2733
      4  C9         4.1830   35.1560   58.2340 C.3     0  <0>0        0.1543
      5  C10        2.9060   34.6570   58.7720 C.2     0  <0>0       -0.0267
      6  C11        1.8540   34.6580   57.9390 C.2     0  <0>0        0.0023
      7  S1         2.4800   35.3100   56.4070 S.3     0  <0>0       -0.0639
      8  C12        4.1620   35.5800   56.8980 C.2     0  <0>0        0.1524
      9  N2         5.2450   36.0530   56.2910 N.2     0  <0>0       -0.3773
     10  C13        6.3940   36.1390   56.9320 C.2     0  <0>0        0.2204
     11  C15        0.6060   34.1310   58.5960 C.3     0  <0>0        0.0327
     12  C16        0.9100   34.1960   60.1120 C.3     0  <0>0        0.0096
     13  C17        2.4480   34.1020   60.1240 C.3     0  <0>0        0.0235
     14  C7         7.7370   35.8520   58.8870 C.ar    0  <0>0        0.0569
     15  C2         8.0550   37.0050   59.5920 C.ar    0  <0>0       -0.0077
     16  C1         7.0710   38.1450   59.6590 C.3     0  <0>0        0.0323
     17  C3         9.2750   37.1060   60.2340 C.ar    0  <0>0       -0.0030
     18  C4        10.1780   36.0610   60.1730 C.ar    0  <0>0       -0.0002
     19  C5         9.8640   34.9120   59.4710 C.ar    0  <0>0        0.0013
     20  C6         8.6440   34.8020   58.8330 C.ar    0  <0>0        0.0150
     21  S2         7.8110   36.7680   56.0950 S.3     0  <0>0       -0.0654
     22  C14        7.3250   38.5020   55.9140 C.3     0  <0>0        0.0781
@<TRIPOS>BOND
     1    22    21    1
     2    21    10    1
     3     9     8    2
     4     9    10    2
     5     7     8    1
     6     7     6    1
     7     8     4    1
     8    10     1    1
     9     6    11    1
    10     6     5    2
    11     4     5    1
    12     4     2    1
    13     1    14    1
    14     1     2   am
    15    11    12    1
    16     5    13    1
    17    20    14   ar
    18    20    19   ar
    19    14    15   ar
    20     2     3    2
    21    19    18   ar
    22    15    16    1
    23    15    17   ar
    24    12    13    1
    25    18    17   ar
