@<TRIPOS>MOLECULE
ZINC39835439_replica-1.pdb
 27 30 0 0 0
SMALL
GASTEIGER

@<TRIPOS>ATOM
      1  C10        8.9820   34.7860   60.1610 C.1     0  <0>0        0.1086
      2  N1         7.8960   34.0230   60.3730 N.2     0  <0>0       -0.3225
      3  C11        6.9200   34.4450   59.6190 C.ar    0  <0>0        0.2606
      4  N2         7.3390   35.5130   58.8760 N.ar    0  <0>0       -0.1500
      5  N3         8.6930   35.7030   59.2660 N.2     0  <0>0       -0.0937
      6  C12        6.4740   36.0920   58.0320 C.ar    0  <0>0        0.2895
      7  O1         6.8030   37.0450   57.3500 O.2     0  <0>0       -0.2645
      8  C13        5.1150   35.5370   57.9570 C.ar    0  <0>0        0.0913
      9  C14        4.0620   35.9310   57.1960 C.2     0  <0>0        0.0145
     10  S1         5.2250   34.2030   59.1410 S.2     0  <0>0       -0.0299
     11  C9        10.2850   34.6230   60.8270 C.2     0  <0>0        0.0859
     12  C8        10.5270   33.5310   61.5700 C.2     0  <0>0        0.0118
     13  C5        11.8310   33.3670   62.2380 C.ar    0  <0>0        0.0007
     14  C4        12.7560   34.4150   62.2370 C.ar    0  <0>0       -0.0003
     15  C3        13.9740   34.2550   62.8650 C.ar    0  <0>0       -0.0043
     16  C2        14.2790   33.0620   63.4960 C.ar    0  <0>0       -0.0218
     17  C1        15.6120   32.8950   64.1800 C.3     0  <0>0        0.0310
     18  C7        13.3690   32.0190   63.4970 C.ar    0  <0>0       -0.0043
     19  C6        12.1460   32.1660   62.8780 C.ar    0  <0>0       -0.0003
     20  C15        2.7810   35.2190   57.2880 C.ar    0  <0>0        0.0387
     21  C20        2.5030   34.1550   56.4190 C.ar    0  <0>0        0.0598
     22  C19        1.2980   33.4880   56.5170 C.ar    0  <0>0        0.0115
     23 Cl          3.6710   33.6730   55.2300 Cl      0  <0>0       -0.0822
     24  C18        0.3620   33.8740   57.4600 C.ar    0  <0>0        0.0032
     25  C17        0.6250   34.9270   58.3190 C.ar    0  <0>0        0.0297
     26  C16        1.8270   35.6020   58.2410 C.ar    0  <0>0        0.1409
     27  F1         2.0830   36.6290   59.0810 F       0  <0>0       -0.2041
@<TRIPOS>BOND
     1    23    21    1
     2    21    22   ar
     3    21    20   ar
     4    22    24   ar
     5     9    20    1
     6     9     8    2
     7    20    26   ar
     8     7     6    2
     9    24    25   ar
    10     8     6   ar
    11     8    10   ar
    12     6     4   ar
    13    26    25   ar
    14    26    27    1
    15     4     5    1
    16     4     3   ar
    17    10     3   ar
    18     5     1    2
    19     3     2    2
    20     1     2    2
    21     1    11    1
    22    11    12    2
    23    12    13    1
    24    14    13   ar
    25    14    15   ar
    26    13    19   ar
    27    15    16   ar
    28    19    18   ar
    29    16    18   ar
    30    16    17    1
