@<TRIPOS>MOLECULE
ZINC04027722_replica-1.pdb
 30 32 0 0 0
SMALL
GASTEIGER

@<TRIPOS>ATOM
      1  C7        -0.6270   28.9160   54.5650 C.3     0  <0>0        0.0242
      2  C4        -0.8610   28.1250   55.8540 C.3     0  <0>0        0.0089
      3  C3         0.3340   28.3140   56.7940 C.3     0  <0>0        0.0276
      4  C2         0.0560   27.5840   58.1110 C.3     0  <0>0        0.0929
      5  C1         1.2190   27.8170   59.0790 C.3     0  <0>0        0.0296
      6  O1        -1.1510   28.0850   58.6870 O.3     0  <0>0       -0.3585
      7  C24       -0.0900   26.0840   57.8430 C.3     0  <0>0        0.0296
      8  C6        -2.3100   27.8940   57.8730 C.3     0  <0>0        0.1420
      9  C5        -2.1290   28.6350   56.5450 C.3     0  <0>0        0.0325
     10  C8        -1.6000   30.0950   54.5060 C.3     0  <0>0        0.0256
     11  C9        -0.8140   31.4070   54.5520 C.3     0  <0>0        0.0900
     12  N1        -0.7000   31.8590   55.9410 N.am    0  <0>0       -0.3009
     13  C10        0.5160   31.9940   56.5080 C.2     0  <0>0        0.2461
     14  O2         1.5170   31.7410   55.8660 O.2     0  <0>0       -0.2701
     15  H16       -1.4980   32.0610   56.4530 H       0  <0>0        0.1497
     16  C11        0.6320   32.4510   57.9110 C.ar    0  <0>0        0.0597
     17  C16        0.8770   33.8060   58.1960 C.ar    0  <0>0        0.0841
     18  C15        0.9840   34.2220   59.5210 C.ar    0  <0>0        0.0067
     19  C14        0.8500   33.3040   60.5460 C.ar    0  <0>0        0.0002
     20  C13        0.6090   31.9710   60.2660 C.ar    0  <0>0        0.0002
     21  C12        0.4940   31.5410   58.9560 C.ar    0  <0>0        0.0047
     22  C17        1.0200   34.7840   57.0970 C.2     0  <0>0        0.3879
     23  O3         0.0860   35.4990   56.7950 O.co2   0  <0>0       -0.2406
     24  O4         2.1860   34.8830   56.4310 O.co2   0  <0>0       -0.2406
     25  C18       -0.8540   28.0180   53.3760 C.ar    0  <0>0       -0.0224
     26  C23       -0.3190   26.7430   53.3620 C.ar    0  <0>0       -0.0043
     27  C22       -0.5260   25.9190   52.2710 C.ar    0  <0>0       -0.0003
     28  C21       -1.2690   26.3710   51.1960 C.ar    0  <0>0       -0.0000
     29  C20       -1.8040   27.6440   51.2110 C.ar    0  <0>0       -0.0003
     30  C19       -1.5940   28.4700   52.3000 C.ar    0  <0>0       -0.0043
@<TRIPOS>BOND
     1    28    29   ar
     2    28    27   ar
     3    29    30   ar
     4    27    26   ar
     5    30    25   ar
     6    26    25   ar
     7    25     1    1
     8    10    11    1
     9    10     1    1
    10    11    12    1
    11     1     2    1
    12     2     9    1
    13     2     3    1
    14    14    13    2
    15    12    15    1
    16    12    13   am
    17    24    22   ar
    18    13    16    1
    19     9     8    1
    20     3     4    1
    21    23    22   ar
    22    22    17    1
    23     7     4    1
    24     8     6    1
    25    16    17   ar
    26    16    21   ar
    27     4     6    1
    28     4     5    1
    29    17    18   ar
    30    21    20   ar
    31    18    19   ar
    32    20    19   ar
