@<TRIPOS>MOLECULE
ZINC20559479_replica-1.pdb
 22 23 0 0 0
SMALL
GASTEIGER

@<TRIPOS>ATOM
      1  N1        -1.2290   29.2590   53.3710 N.pl3   0  <0>0       -0.3336
      2  H14       -0.3720   29.9380   53.4850 H       0  <0>0        0.1468
      3  C2        -2.5620   29.6830   53.8080 C.3     0  <0>0        0.0694
      4  C1        -3.0930   30.7560   52.8550 C.3     0  <0>0        0.0212
      5  C3        -2.4760   30.2570   55.2230 C.3     0  <0>0        0.0242
      6  C4        -2.6870   29.1350   56.2420 C.3     0  <0>0        0.0280
      7  C5        -1.7460   29.3260   57.4030 C.ar    0  <0>0       -0.0221
      8  C10       -1.8610   28.5280   58.5250 C.ar    0  <0>0       -0.0043
      9  C9        -0.9980   28.7040   59.5900 C.ar    0  <0>0       -0.0003
     10  C8        -0.0180   29.6790   59.5320 C.ar    0  <0>0       -0.0000
     11  C7         0.0970   30.4770   58.4100 C.ar    0  <0>0       -0.0003
     12  C6        -0.7660   30.3010   57.3450 C.ar    0  <0>0       -0.0043
     13  C11       -1.0480   27.9890   52.8100 C.ar    0  <0>0        0.0505
     14  C16       -0.2150   27.0600   53.4350 C.ar    0  <0>0        0.0433
     15  C15       -0.0430   25.8030   52.8750 C.ar    0  <0>0        0.0075
     16  C14       -0.6880   25.4760   51.6970 C.ar    0  <0>0        0.0006
     17  C13       -1.5090   26.3980   51.0750 C.ar    0  <0>0        0.0013
     18  C12       -1.6900   27.6540   51.6270 C.ar    0  <0>0        0.0148
     19  S1         0.6120   27.4810   54.9330 S.3     0  <0>0       -0.0429
     20  C17        0.0730   26.2060   56.1050 C.3     0  <0>0        0.3707
     21  F1         0.6390   24.9770   55.7490 F       0  <0>0       -0.1852
     22  F2         0.4870   26.5540   57.3950 F       0  <0>0       -0.1852
@<TRIPOS>BOND
     1    17    18   ar
     2    17    16   ar
     3    18    13   ar
     4    16    15   ar
     5    13     1    1
     6    13    14   ar
     7     4     3    1
     8    15    14   ar
     9     1     2    1
    10     1     3    1
    11    14    19    1
    12     3     5    1
    13    19    20    1
    14     5     6    1
    15    21    20    1
    16    20    22    1
    17     6     7    1
    18    12     7   ar
    19    12    11   ar
    20     7     8   ar
    21    11    10   ar
    22     8     9   ar
    23    10     9   ar
