@<TRIPOS>MOLECULE
ZINC66696822_replica-1.pdb
 27 29 0 0 0
SMALL
GASTEIGER

@<TRIPOS>ATOM
      1  N1         1.5360   31.4290   56.0730 N.am    0  <0>0       -0.2968
      2  C12        0.4040   31.0060   55.4760 C.2     0  <0>0        0.2429
      3  O1        -0.4240   31.8110   55.1040 O.2     0  <0>0       -0.2732
      4  H9         2.1980   30.7850   56.3700 H       0  <0>0        0.1500
      5  C5         1.7660   32.8620   56.2740 C.3     0  <0>0        0.1230
      6  C3         1.3300   33.2510   57.6620 C.ar    0  <0>0        0.0292
      7  C2         0.9780   32.4550   58.7020 C.ar    0  <0>0        0.0046
      8  C1         0.6090   33.0400   59.8990 C.ar    0  <0>0        0.0072
      9  C4         0.6070   34.3910   59.9980 C.ar    0  <0>0        0.0352
     10  S1         1.1410   34.8810   58.3660 S.2     0  <0>0       -0.0888
     11  C6         3.2330   33.1640   56.1060 C.ar    0  <0>0        0.0003
     12  C11        4.1640   32.5390   56.9130 C.ar    0  <0>0       -0.0000
     13  C10        5.5100   32.8120   56.7570 C.ar    0  <0>0        0.0294
     14  C9         5.9240   33.7200   55.7970 C.ar    0  <0>0        0.1401
     15  C8         4.9900   34.3500   54.9930 C.ar    0  <0>0        0.0294
     16  F1         7.2390   33.9920   55.6470 F       0  <0>0       -0.2042
     17  C7         3.6450   34.0710   55.1480 C.ar    0  <0>0       -0.0000
     18  C13        0.1670   29.5320   55.2690 C.3     0  <0>0        0.1736
     19  N2        -0.7410   29.3380   54.1360 N.pl3   0  <0>0       -0.3253
     20  H12       -1.3660   30.0370   53.8900 H       0  <0>0        0.1473
     21  C14       -0.7080   28.1420   53.4100 C.ar    0  <0>0        0.0451
     22  C19       -0.0430   27.0360   53.9230 C.ar    0  <0>0        0.0166
     23  C18       -0.0150   25.8550   53.2070 C.ar    0  <0>0        0.0309
     24  C17       -0.6410   25.7780   51.9740 C.ar    0  <0>0        0.1402
     25  C16       -1.3010   26.8800   51.4590 C.ar    0  <0>0        0.0309
     26  F2        -0.6090   24.6230   51.2730 F       0  <0>0       -0.2042
     27  C15       -1.3350   28.0620   52.1740 C.ar    0  <0>0        0.0166
@<TRIPOS>BOND
     1    26    24    1
     2    25    24   ar
     3    25    27   ar
     4    24    23   ar
     5    27    21   ar
     6    23    22   ar
     7    21    22   ar
     8    21    19    1
     9    20    19    1
    10    19    18    1
    11    15    17   ar
    12    15    14   ar
    13     3     2    2
    14    17    11   ar
    15    18     2    1
    16     2     1   am
    17    16    14    1
    18    14    13   ar
    19     1     5    1
    20     1     4    1
    21    11     5    1
    22    11    12   ar
    23     5     6    1
    24    13    12   ar
    25     6    10   ar
    26     6     7   ar
    27    10     9   ar
    28     7     8   ar
    29     8     9   ar
