@<TRIPOS>MOLECULE
ZINC37102316_replica-1.pdb
 22 24 0 0 0
SMALL
GASTEIGER

@<TRIPOS>ATOM
      1  C10       10.7870   35.5340   61.5710 C.ar    0  <0>0        0.0447
      2  C11       10.1170   36.7440   61.4480 C.ar    0  <0>0        0.0156
      3  C12        9.4290   37.0390   60.2880 C.ar    0  <0>0        0.0158
      4  C13        9.4080   36.1240   59.2430 C.ar    0  <0>0        0.0479
      5  C14       10.0770   34.9130   59.3660 C.ar    0  <0>0        0.0158
      6  C15       10.7700   34.6220   60.5250 C.ar    0  <0>0        0.0156
      7  N1        11.4830   35.2350   62.7490 N.pl3   0  <0>0       -0.3340
      8  H18       11.2410   35.6740   63.5790 H       0  <0>0        0.1468
      9  C4        12.5760   34.2600   62.7270 C.3     0  <0>0        0.0690
     10  C3        12.0230   32.8670   63.0350 C.3     0  <0>0        0.0195
     11  C2        13.1660   31.8490   63.0120 C.3     0  <0>0        0.0016
     12  C1        12.6130   30.4560   63.3210 C.3     0  <0>0        0.0001
     13  C7        14.2090   32.2290   64.0650 C.3     0  <0>0        0.0001
     14  C6        14.7610   33.6220   63.7560 C.3     0  <0>0        0.0016
     15  C5        13.6190   34.6400   63.7790 C.3     0  <0>0        0.0195
     16  C8        15.4120   33.6170   62.3710 C.3     0  <0>0        0.0001
     17  C9        15.8050   34.0020   64.8090 C.3     0  <0>0        0.0001
     18  N2         8.7100   36.4210   58.0660 N.pl3   0  <0>0       -0.3075
     19  C19        7.9770   37.6700   57.7940 C.3     0  <0>0        0.0908
     20  C18        7.9390   37.7770   56.2470 C.3     0  <0>0        0.0232
     21  C17        7.7530   36.2910   55.8400 C.3     0  <0>0        0.0232
     22  C16        8.5830   35.5360   56.8980 C.3     0  <0>0        0.0908
@<TRIPOS>BOND
     1    21    20    1
     2    21    22    1
     3    20    19    1
     4    22    18    1
     5    19    18    1
     6    18     4    1
     7     4     5   ar
     8     4     3   ar
     9     5     6   ar
    10     3     2   ar
    11     6     1   ar
    12     2     1   ar
    13     1     7    1
    14    16    14    1
    15     9     7    1
    16     9    10    1
    17     9    15    1
    18     7     8    1
    19    11    10    1
    20    11    12    1
    21    11    13    1
    22    14    15    1
    23    14    13    1
    24    14    17    1
