@<TRIPOS>MOLECULE
ZINC01514756_replica-1.pdb
 21 23 0 0 0
SMALL
GASTEIGER

@<TRIPOS>ATOM
      1  C1        -2.5540   29.0800   56.6190 C.3     0  <0>0        0.0197
      2  C2        -1.3460   29.9380   56.3440 C.3     0  <0>0        0.1078
      3  C3        -0.3050   29.7260   55.4860 C.2     0  <0>0        0.1241
      4  N1         0.6680   30.6310   55.4050 N.2     0  <0>0       -0.3843
      5  C4         0.6430   31.7270   56.1420 C.2     0  <0>0        0.2106
      6  S1        -0.8830   31.5140   57.0480 S.3     0  <0>0       -0.0608
      7  C9        -0.2600   28.5010   54.6500 C.ar    0  <0>0        0.0605
      8  C14        0.4480   27.3770   55.0890 C.ar    0  <0>0        0.1358
      9  C13        0.4840   26.2380   54.3020 C.ar    0  <0>0        0.0372
     10  C12       -0.1760   26.2130   53.0880 C.ar    0  <0>0        0.0098
     11  C11       -0.8770   27.3240   52.6510 C.ar    0  <0>0        0.0348
     12  C10       -0.9260   28.4640   53.4270 C.ar    0  <0>0        0.0120
     13 Br         -1.7750   27.2770   50.9870 Br      0  <0>0       -0.0490
     14  O2         1.0970   27.4030   56.2830 O.3     0  <0>0       -0.5054
     15  H15        2.0550   27.2980   56.2110 H       0  <0>0        0.2922
     16  N2         1.5540   32.7690   56.1940 N.pl3   0  <0>0       -0.2736
     17  C8         0.9970   33.9200   56.9200 C.3     0  <0>0        0.1257
     18  C7         2.0120   35.0670   56.9010 C.3     0  <0>0        0.1637
     19  O1         3.2450   34.6140   57.4670 O.3     0  <0>0       -0.3501
     20  C6         3.8150   33.4950   56.7850 C.3     0  <0>0        0.1637
     21  C5         2.8190   32.3320   56.8020 C.3     0  <0>0        0.1257
@<TRIPOS>BOND
     1    13    11    1
     2    11    10   ar
     3    11    12   ar
     4    10     9   ar
     5    12     7   ar
     6     9     8   ar
     7     7     8   ar
     8     7     3    1
     9     8    14    1
    10     4     3    2
    11     4     5    2
    12     3     2    1
    13     5    16    1
    14     5     6    1
    15    16    21    1
    16    16    17    1
    17    15    14    1
    18     2     1    1
    19     2     6    1
    20    20    21    1
    21    20    19    1
    22    18    17    1
    23    18    19    1
