@<TRIPOS>MOLECULE
ZINC39564109_replica-1.pdb
 20 21 0 0 0
SMALL
GASTEIGER

@<TRIPOS>ATOM
      1  C6        10.4970   35.4210   60.5480 C.ar    0  <0>0        0.0462
      2  C7        10.0310   36.7430   60.9580 C.ar    0  <0>0        0.0159
      3  C8         9.1670   37.4450   60.2000 C.ar    0  <0>0        0.0215
      4  C9         8.6850   36.8680   58.9350 C.ar    0  <0>0        0.0954
      5  N2         7.8670   37.3160   58.0280 N.2     0  <0>0       -0.2466
      6  C10        7.7640   36.2950   56.9790 C.3     0  <0>0        0.2047
      7  N3         8.6330   35.1870   57.3940 N.2     0  <0>0       -0.2465
      8  C11        9.1740   35.5200   58.5380 C.ar    0  <0>0        0.0966
      9  C12       10.0870   34.8470   59.3880 C.ar    0  <0>0        0.0345
     10  N1        11.3860   34.7370   61.3610 N.pl3   0  <0>0       -0.3326
     11  H13       11.5740   33.8000   61.1950 H       0  <0>0        0.1468
     12  C5        12.0420   35.4280   62.4740 C.3     0  <0>0        0.0870
     13  C4        12.7120   34.4020   63.3890 C.3     0  <0>0        0.0212
     14  C3        13.9120   33.7830   62.6690 C.3     0  <0>0        0.0017
     15  C2        14.2780   32.4550   63.3360 C.3     0  <0>0        0.0001
     16  C1        13.1020   31.4830   63.2160 C.3     0  <0>0        0.0000
     17  C13        6.3180   35.8100   56.8560 C.3     0  <0>0        0.0421
     18  C14        5.5820   36.0670   58.1720 C.3     0  <0>0        0.0040
     19  C15        5.6210   36.5680   55.7240 C.3     0  <0>0        0.0040
     20  C16        6.3070   34.3110   56.5490 C.3     0  <0>0        0.0040
@<TRIPOS>BOND
     1    19    17    1
     2    20    17    1
     3    17     6    1
     4    17    18    1
     5     6     7    1
     6     6     5    1
     7     7     8    2
     8     5     4    2
     9     8     4   ar
    10     8     9   ar
    11     4     3   ar
    12     9     1   ar
    13     3     2   ar
    14     1     2   ar
    15     1    10    1
    16    11    10    1
    17    10    12    1
    18    12    13    1
    19    14    15    1
    20    14    13    1
    21    16    15    1
