@<TRIPOS>MOLECULE
ZINC65350883_replica-1.pdb
 18 19 0 0 0
SMALL
GASTEIGER

@<TRIPOS>ATOM
      1  C8        10.4700   35.2470   60.7000 C.ar    0  <0>0        0.0008
      2  C9        10.1810   36.5150   61.2080 C.ar    0  <0>0        0.0003
      3  C10        9.4530   37.4020   60.4690 C.ar    0  <0>0        0.0074
      4  C11        8.9930   37.0450   59.1970 C.ar    0  <0>0        0.0903
      5  C12        9.2800   35.7750   58.6820 C.ar    0  <0>0        0.0640
      6  C13       10.0190   34.8840   59.4300 C.ar    0  <0>0        0.0116
      7 Cl          8.7110   35.3260   57.1050 Cl      0  <0>0       -0.0820
      8  C5        11.2590   34.2890   61.5070 C.ar    0  <0>0        0.0001
      9  C4        12.5670   34.6010   61.8820 C.ar    0  <0>0        0.0005
     10  C3        13.2990   33.7080   62.6320 C.ar    0  <0>0        0.0061
     11  C2        12.7350   32.4960   63.0180 C.ar    0  <0>0        0.0252
     12  C7        11.4330   32.1790   62.6410 C.ar    0  <0>0        0.0061
     13  C6        10.6960   33.0720   61.8950 C.ar    0  <0>0        0.0005
     14  S1        13.6750   31.3550   63.9780 S.3     0  <0>0       -0.1127
     15  C1        12.5150   30.0000   64.3100 C.3     0  <0>0        0.0742
     16  C14        8.2080   38.0030   58.4010 C.2     0  <0>0        0.3886
     17  O1         8.7760   38.7860   57.6520 O.co2   0  <0>0       -0.2405
     18  O2         6.9880   38.0160   58.4880 O.co2   0  <0>0       -0.2405
@<TRIPOS>BOND
     1     7     5    1
     2    17    16   ar
     3    16    18   ar
     4    16     4    1
     5     5     4   ar
     6     5     6   ar
     7     4     3   ar
     8     6     1   ar
     9     3     2   ar
    10     1     2   ar
    11     1     8    1
    12     8     9   ar
    13     8    13   ar
    14     9    10   ar
    15    13    12   ar
    16    10    11   ar
    17    12    11   ar
    18    11    14    1
    19    14    15    1
