@<TRIPOS>MOLECULE
ZINC52253286_replica-1.pdb
 21 21 0 0 0
SMALL
GASTEIGER

@<TRIPOS>ATOM
      1  C5         7.1200   36.2270   58.8440 C.3     0  <0>0        0.1432
      2  C4         7.5400   36.4960   57.3980 C.3     0  <0>0        0.1300
      3  C2         7.4870   38.0010   57.1240 C.3     0  <0>0        0.0133
      4  C1         8.8420   38.6280   57.4590 C.3     0  <0>0        0.0007
      5  C3         7.1660   38.2390   55.6460 C.3     0  <0>0        0.0007
      6  C13        6.6020   35.7810   56.4600 C.2     0  <0>0        0.3193
      7  O3         7.0450   35.1110   55.5580 O.2     0  <0>0       -0.2500
      8  O4         5.2740   35.8860   56.6290 O.3     0  <0>0       -0.4443
      9  C14        4.4480   35.4780   55.5370 C.3     0  <0>0        0.2556
     10  C6         8.3490   36.1150   59.7110 C.ar    0  <0>0        0.0050
     11  C11        8.4580   36.8850   60.8550 C.ar    0  <0>0        0.0012
     12  C10        9.5800   36.7800   61.6540 C.ar    0  <0>0        0.0368
     13  C9        10.6020   35.9110   61.3020 C.ar    0  <0>0        0.1443
     14  C8        10.4920   35.1440   60.1510 C.ar    0  <0>0        0.0368
     15  C7         9.3650   35.2480   59.3590 C.ar    0  <0>0        0.0012
     16  O1        11.7090   35.8090   62.0840 O.3     0  <0>0       -0.4236
     17  C12       12.1880   34.4930   62.3630 C.3     0  <0>0        0.5087
     18  F1        13.3370   34.2430   61.6040 F       0  <0>0       -0.1550
     19  F2        12.4970   34.3870   63.7240 F       0  <0>0       -0.1550
     20  O2         6.3040   37.3010   59.3110 O.3     0  <0>0       -0.3795
     21  H15        6.6710   38.1790   59.1390 H       0  <0>0        0.2108
@<TRIPOS>BOND
     1     9     8    1
     2     7     6    2
     3     5     3    1
     4     6     8    1
     5     6     2    1
     6     3     2    1
     7     3     4    1
     8     2     1    1
     9     1    20    1
    10     1    10    1
    11    21    20    1
    12    15    10   ar
    13    15    14   ar
    14    10    11   ar
    15    14    13   ar
    16    11    12   ar
    17    13    12   ar
    18    13    16    1
    19    18    17    1
    20    16    17    1
    21    17    19    1
