@<TRIPOS>MOLECULE
ZINC02451181_replica-1.pdb
 28 30 0 0 0
SMALL
GASTEIGER

@<TRIPOS>ATOM
      1  C4        10.4790   34.3380   60.8790 C.1     0  <0>0        0.1692
      2  N1        10.2510   35.3480   60.0540 N.2     0  <0>0       -0.3236
      3  C5         9.2300   35.3940   59.2010 C.2     0  <0>0        0.1806
      4  C6         8.3580   34.2660   59.2080 C.3     0  <0>0        0.1456
      5  C7         7.1820   34.0620   58.3840 C.2     0  <0>0       -0.0227
      6  C8         6.5040   32.9030   58.5660 C.2     0  <0>0        0.0319
      7  S2         7.3910   32.0370   59.8330 S.3     0  <0>0       -0.0606
      8  C9         8.6680   33.2220   60.1180 C.2     0  <0>0        0.1625
      9  N2         9.7010   33.2540   60.9340 N.2     0  <0>0       -0.3319
     10  C10        5.2690   32.4750   57.8350 C.3     0  <0>0        0.1742
     11  O1         5.1040   33.3380   56.6990 O.3     0  <0>0       -0.3529
     12  C11        5.2270   34.7280   57.0170 C.3     0  <0>0        0.0970
     13  C12        6.6830   35.0660   57.3470 C.3     0  <0>0        0.0503
     14  C13        4.3450   35.0470   58.2260 C.3     0  <0>0        0.0300
     15  N3         9.0280   36.4710   58.3560 N.pl3   0  <0>0       -0.3097
     16  H21        9.0390   36.3420   57.3950 H       0  <0>0        0.1489
     17  C16        8.7980   37.8050   58.9150 C.3     0  <0>0        0.1003
     18  C17        7.9030   37.6920   60.1510 C.3     0  <0>0        0.0221
     19  C18        6.4360   37.8070   59.7300 C.3     0  <0>0        0.0018
     20  C19        8.1100   38.6850   57.8690 C.3     0  <0>0        0.1565
     21  O2         9.0190   38.9520   56.7980 O.3     0  <0>0       -0.3802
     22  H29        8.7360   38.5980   55.9440 H       0  <0>0        0.2105
     23  S1        11.8740   34.4270   61.9510 S.3     0  <0>0       -0.0181
     24  C3        11.7820   32.7910   62.7220 C.3     0  <0>0        0.0744
     25  C2        13.1950   32.3000   63.0450 C.3     0  <0>0        0.0128
     26  C1        13.1220   30.8900   63.6350 C.3     0  <0>0        0.0010
     27  C14        4.7700   35.5640   55.8200 C.3     0  <0>0        0.0276
     28  C15        4.3340   34.6350   54.6850 C.3     0  <0>0        0.0025
@<TRIPOS>BOND
     1    28    27    1
     2    27    12    1
     3    22    21    1
     4    11    12    1
     5    11    10    1
     6    21    20    1
     7    12    13    1
     8    12    14    1
     9    13     5    1
    10    16    15    1
    11    10     6    1
    12    20    17    1
    13    15    17    1
    14    15     3    1
    15     5     6    2
    16     5     4    1
    17     6     7    1
    18    17    18    1
    19     3     4    1
    20     3     2    2
    21     4     8    1
    22    19    18    1
    23     7     8    1
    24     2     1    2
    25     8     9    2
    26     1     9    2
    27     1    23    1
    28    23    24    1
    29    24    25    1
    30    25    26    1
