@<TRIPOS>MOLECULE
ZINC02305115_replica-1.pdb
 29 32 0 0 0
SMALL
GASTEIGER

@<TRIPOS>ATOM
      1  C3         7.6850   36.4300   57.2960 C.3     0  <0>0        0.0970
      2  C4         6.2690   36.1660   57.8160 C.3     0  <0>0        0.0504
      3  C5         5.5020   35.4080   56.7350 C.2     0  <0>0       -0.0220
      4  C6         5.9640   35.4080   55.4660 C.2     0  <0>0        0.0319
      5  S1         4.8020   34.4320   54.5540 S.3     0  <0>0       -0.0615
      6  C7         3.6950   34.0270   55.8820 C.2     0  <0>0        0.1525
      7  C8         4.2690   34.6660   56.9950 C.3     0  <0>0        0.1545
      8  C9         3.5710   34.5080   58.2340 C.2     0  <0>0        0.2459
      9  O1         3.9940   35.0250   59.2520 O.2     0  <0>0       -0.2733
     10  N1         2.4410   33.7760   58.2590 N.am    0  <0>0       -0.2070
     11  C10        1.9550   33.1830   57.1280 C.2     0  <0>0        0.2206
     12  N2         2.5760   33.3190   55.9730 N.2     0  <0>0       -0.3773
     13  C22        7.1980   36.0980   54.9720 C.3     0  <0>0        0.1742
     14  O2         7.6290   37.0130   55.9900 O.3     0  <0>0       -0.3529
     15  C23        8.4540   35.1090   57.2250 C.3     0  <0>0        0.0300
     16  C15        1.7530   33.6170   59.4690 C.ar    0  <0>0        0.0569
     17  C20        2.0610   32.5540   60.3090 C.ar    0  <0>0       -0.0077
     18  C19        1.3770   32.3960   61.4990 C.ar    0  <0>0       -0.0030
     19  C21        3.1350   31.5720   59.9200 C.3     0  <0>0        0.0323
     20  C18        0.3910   33.2970   61.8550 C.ar    0  <0>0       -0.0002
     21  C17        0.0870   34.3590   61.0240 C.ar    0  <0>0        0.0013
     22  C16        0.7670   34.5230   59.8330 C.ar    0  <0>0        0.0150
     23  S2         0.4750   32.2300   57.2120 S.3     0  <0>0       -0.0619
     24  C11        0.5130   31.4450   55.5830 C.3     0  <0>0        0.0879
     25  C12       -0.8420   30.8630   55.2740 C.2     0  <0>0       -0.0327
     26  C13       -1.8340   31.0320   56.1120 C.2     0  <0>0       -0.0082
     27  C14       -1.0570   30.0850   54.0010 C.3     0  <0>0        0.0273
     28  C2         8.4060   37.3860   58.2480 C.3     0  <0>0        0.0276
     29  C1         8.5190   38.7660   57.5970 C.3     0  <0>0        0.0025
@<TRIPOS>BOND
     1    27    25    1
     2     5     4    1
     3     5     6    1
     4    13     4    1
     5    13    14    1
     6    25    24    1
     7    25    26    2
     8     4     3    2
     9    24    23    1
    10     6    12    2
    11     6     7    1
    12    12    11    2
    13    14     1    1
    14     3     7    1
    15     3     2    1
    16     7     8    1
    17    11    23    1
    18    11    10    1
    19    15     1    1
    20     1     2    1
    21     1    28    1
    22    29    28    1
    23     8    10   am
    24     8     9    2
    25    10    16    1
    26    16    22   ar
    27    16    17   ar
    28    22    21   ar
    29    19    17    1
    30    17    18   ar
    31    21    20   ar
    32    18    20   ar
