@<TRIPOS>MOLECULE
ZINC08548706_replica-1.pdb
 29 32 0 0 0
SMALL
GASTEIGER

@<TRIPOS>ATOM
      1  C1        -2.9370   30.0900   55.8990 C.3     0  <0>0        0.0537
      2  C2        -1.6950   30.6390   56.5540 C.ar    0  <0>0        0.0780
      3  C3        -0.6640   29.8870   57.1120 C.ar    0  <0>0        0.0244
      4  C4         0.2660   30.7480   57.5990 C.ar    0  <0>0        0.0592
      5  N1        -0.1620   32.0000   57.3530 N.ar    0  <0>0       -0.2343
      6  N2        -1.3970   31.9080   56.6960 N.ar    0  <0>0       -0.1701
      7  C11        1.5390   30.3180   58.2860 C.3     0  <0>0        0.0457
      8  C12        1.3930   28.8480   58.6990 C.3     0  <0>0        0.0075
      9  C13        0.9080   28.0270   57.5010 C.3     0  <0>0        0.0246
     10  C14       -0.5500   28.3850   57.1900 C.3     0  <0>0        0.0967
     11  C22        0.3790   28.7380   59.8380 C.3     0  <0>0        0.0005
     12  C23        2.7480   28.3140   59.1690 C.3     0  <0>0        0.0005
     13  N3        -0.9410   27.7930   55.9090 N.am    0  <0>0       -0.2986
     14  C15       -0.1930   28.0120   54.8100 C.2     0  <0>0        0.2469
     15  O1         0.7560   28.7690   54.8610 O.2     0  <0>0       -0.2701
     16  H14       -1.7400   27.2470   55.8510 H       0  <0>0        0.1500
     17  C16       -0.5270   27.3300   53.5410 C.ar    0  <0>0        0.0639
     18  C21       -0.1550   25.9990   53.3410 C.ar    0  <0>0        0.0620
     19  C20       -0.4740   25.3680   52.1540 C.ar    0  <0>0        0.0115
     20 Cl          0.6990   25.1370   54.5820 Cl      0  <0>0       -0.0821
     21  C19       -1.1500   26.0540   51.1620 C.ar    0  <0>0        0.0009
     22  C18       -1.5170   27.3760   51.3540 C.ar    0  <0>0        0.0002
     23  C17       -1.2090   28.0160   52.5350 C.ar    0  <0>0        0.0054
     24  C5         0.5080   33.1840   57.6930 C.ar    0  <0>0        0.0824
     25  C10        1.3310   33.8090   56.7660 C.ar    0  <0>0        0.0191
     26  C9         1.9880   34.9750   57.1040 C.ar    0  <0>0        0.0015
     27  C8         1.8280   35.5210   58.3650 C.ar    0  <0>0        0.0001
     28  C7         1.0080   34.9010   59.2910 C.ar    0  <0>0        0.0015
     29  C6         0.3440   33.7370   58.9560 C.ar    0  <0>0        0.0191
@<TRIPOS>BOND
     1    21    22   ar
     2    21    19   ar
     3    22    23   ar
     4    19    18   ar
     5    23    17   ar
     6    18    17   ar
     7    18    20    1
     8    17    14    1
     9    14    15    2
    10    14    13   am
    11    16    13    1
    12     1     2    1
    13    13    10    1
    14     2     6   ar
    15     2     3   ar
    16     6     5   ar
    17    25    26   ar
    18    25    24   ar
    19    26    27   ar
    20     3    10    1
    21     3     4   ar
    22    10     9    1
    23     5     4   ar
    24     5    24    1
    25     9     8    1
    26     4     7    1
    27    24    29   ar
    28     7     8    1
    29    27    28   ar
    30     8    12    1
    31     8    11    1
    32    29    28   ar
