@<TRIPOS>MOLECULE
ZINC19790384_replica-1.pdb
 32 34 0 0 0
SMALL
GASTEIGER

@<TRIPOS>ATOM
      1  C6         2.9980   35.6270   58.0930 C.ar    0  <0>0        0.0252
      2  C7         2.7290   35.9100   56.7650 C.ar    0  <0>0        0.1305
      3  C8         3.7610   36.2210   55.8820 C.ar    0  <0>0        0.0365
      4  C9         5.0560   36.2400   56.3150 C.ar    0  <0>0        0.0093
      5  C10        5.3440   35.9510   57.6480 C.ar    0  <0>0        0.0734
      6  C11        4.3090   35.6410   58.5500 C.ar    0  <0>0        0.1453
      7  O1         4.5900   35.3640   59.8380 O.2     0  <0>0       -0.4505
      8  C12        5.8300   35.3630   60.3350 C.ar    0  <0>0        0.1827
      9  C13        6.9210   35.6440   59.5770 C.ar    0  <0>0        0.0795
     10  C14        6.7300   35.9630   58.1520 C.ar    0  <0>0        0.2016
     11  O2         7.6720   36.2220   57.4230 O.2     0  <0>0       -0.2864
     12  C5         1.8730   35.2980   59.0390 C.3     0  <0>0       -0.0437
     13  N1         1.8410   33.8490   59.2780 N.4     0  <0>0        0.3898
     14  H32        2.7940   33.4270   58.9260 H       0  <0>0       -0.0792
     15  C4         1.7170   33.5540   60.7120 C.3     0  <0>0       -0.0768
     16  C2         0.2670   33.1900   61.0330 C.3     0  <0>0       -0.0208
     17  C1         0.2350   31.8980   61.8550 C.3     0  <0>0       -0.0022
     18  C3        -0.3770   34.3210   61.8370 C.3     0  <0>0       -0.0022
     19  C22        0.7580   33.2140   58.5140 C.3     0  <0>0       -0.0768
     20  C23        1.2940   31.9660   57.8100 C.3     0  <0>0       -0.0208
     21  C24        0.1940   30.9050   57.7460 C.3     0  <0>0       -0.0022
     22  C25        1.7320   32.3320   56.3890 C.3     0  <0>0       -0.0022
     23  O4         1.4460   35.8900   56.3190 O.3     0  <0>0       -0.5058
     24  H22        0.6490   36.3520   56.9190 H       0  <0>0        0.2922
     25  C15        8.2790   35.6300   60.1730 C.ar    0  <0>0        0.0401
     26  C20        9.0420   34.4600   60.1540 C.ar    0  <0>0        0.1388
     27  C19       10.3110   34.4570   60.7100 C.ar    0  <0>0        0.0369
     28  C18       10.8160   35.6060   61.2890 C.ar    0  <0>0        0.0031
     29  C17       10.0610   36.7640   61.3140 C.ar    0  <0>0        0.0002
     30  C16        8.7970   36.7830   60.7610 C.ar    0  <0>0        0.0032
     31  O3         8.5430   33.3290   59.5870 O.3     0  <0>0       -0.4714
     32  C21        8.3120   32.2170   60.4540 C.3     0  <0>0        0.2525
@<TRIPOS>BOND
     1     3     4   ar
     2     3     2   ar
     3     4     5   ar
     4    23     2    1
     5    23    24    1
     6    22    20    1
     7     2     1   ar
     8    11    10    2
     9     5    10   ar
    10     5     6   ar
    11    21    20    1
    12    20    19    1
    13     1     6   ar
    14     1    12    1
    15    10     9   ar
    16    19    13    1
    17     6     7   ar
    18    14    13    1
    19    12    13    1
    20    13    15    1
    21     9    25    1
    22     9     8   ar
    23    31    26    1
    24    31    32    1
    25     7     8   ar
    26    26    25   ar
    27    26    27   ar
    28    25    30   ar
    29    27    28   ar
    30    15    16    1
    31    30    29   ar
    32    16    18    1
    33    16    17    1
    34    28    29   ar
