@<TRIPOS>MOLECULE
ZINC05028011_replica-1.pdb
 29 32 0 0 0
SMALL
GASTEIGER

@<TRIPOS>ATOM
      1  C13        9.7120   34.8250   59.3840 C.2     0  <0>0        0.0153
      2  C14        9.9400   35.1760   60.6960 C.2     0  <0>0        0.1120
      3  C15        9.1930   36.2420   61.2940 C.1     0  <0>0        0.1043
      4  N2         8.6000   37.0860   61.7670 N.1     0  <0>0       -0.1907
      5  C16       10.9550   34.4550   61.4840 C.2     0  <0>0        0.1899
      6  N4        12.0240   34.9990   62.0180 N.2     0  <0>0       -0.3888
      7  C22       12.7380   34.0510   62.6750 C.2     0  <0>0        0.1323
      8  C17       12.0520   32.8330   62.5210 C.3     0  <0>0        0.1467
      9  C21       13.9310   34.0810   63.4050 C.2     0  <0>0        0.0254
     10  N3        10.9300   33.1140   61.7650 N.pl3   0  <0>0       -0.3002
     11  C18       12.5630   31.6770   63.0930 C.2     0  <0>0       -0.0001
     12  H1        10.2500   32.4790   61.4850 H       0  <0>0        0.1498
     13  C19       13.7410   31.7300   63.8090 C.2     0  <0>0       -0.0067
     14  C20       14.4170   32.9320   63.9610 C.2     0  <0>0       -0.0198
     15  C23       15.7020   32.9700   64.7470 C.3     0  <0>0        0.0311
     16  C10        8.6050   35.4350   58.6460 C.ar    0  <0>0        0.0139
     17  C9         8.6800   36.5720   57.7180 C.ar    0  <0>0        0.0142
     18  C8         7.4300   36.7880   57.2750 C.ar    0  <0>0        0.0414
     19  N1         6.5850   35.8820   57.8520 N.ar    0  <0>0       -0.3135
     20  C24        7.0250   37.8630   56.2980 C.3     0  <0>0        0.0504
     21  C11        7.2730   35.0620   58.6830 C.ar    0  <0>0        0.0414
     22  C12        6.6900   33.9400   59.5030 C.3     0  <0>0        0.0504
     23  C5         5.2050   35.8130   57.6190 C.ar    0  <0>0        0.0634
     24  C4         4.3120   36.1380   58.6310 C.ar    0  <0>0        0.0172
     25  C3         2.9520   36.0690   58.3990 C.ar    0  <0>0       -0.0028
     26  C2         2.4800   35.6760   57.1610 C.ar    0  <0>0       -0.0218
     27  C1         0.9960   35.6020   56.9110 C.3     0  <0>0        0.0310
     28  C7         3.3670   35.3470   56.1520 C.ar    0  <0>0       -0.0028
     29  C6         4.7280   35.4190   56.3760 C.ar    0  <0>0        0.0172
@<TRIPOS>BOND
     1    28    29   ar
     2    28    26   ar
     3    20    18    1
     4    29    23   ar
     5    27    26    1
     6    26    25   ar
     7    18    17   ar
     8    18    19   ar
     9    23    19    1
    10    23    24   ar
    11    17    16   ar
    12    19    21   ar
    13    25    24   ar
    14    16    21   ar
    15    16     1    1
    16    21    22    1
    17     1     2    2
    18     2     3    1
    19     2     5    1
    20     3     4    3
    21     5    10    1
    22     5     6    2
    23    12    10    1
    24    10     8    1
    25     6     7    2
    26     8     7    1
    27     8    11    1
    28     7     9    1
    29    11    13    2
    30     9    14    2
    31    13    14    1
    32    14    15    1
