@<TRIPOS>MOLECULE
ZINC37884594_replica-1.pdb
 22 23 0 0 0
SMALL
GASTEIGER

@<TRIPOS>ATOM
      1  N1        -0.9500   30.3070   54.8080 N.pl3   0  <0>0       -0.3304
      2  H13       -1.2100   30.8870   54.0740 H       0  <0>0        0.1469
      3  C8        -0.5570   28.9920   54.5520 C.ar    0  <0>0        0.0444
      4  C7         0.0350   28.2350   55.5540 C.ar    0  <0>0        0.0143
      5  C6         0.4230   26.9340   55.2990 C.ar    0  <0>0        0.0009
      6  C5         0.2200   26.3850   54.0460 C.ar    0  <0>0       -0.0042
      7  C4        -0.3700   27.1350   53.0460 C.ar    0  <0>0       -0.0213
      8  C9        -0.7540   28.4380   53.2930 C.ar    0  <0>0        0.0100
      9  C2        -0.5880   26.5320   51.6820 C.3     0  <0>0        0.0224
     10  C1        -0.7950   25.0220   51.8190 C.3     0  <0>0        0.0047
     11  C3        -1.8270   27.1600   51.0390 C.3     0  <0>0        0.0047
     12  C10       -0.9670   30.8130   56.1830 C.3     0  <0>0        0.1214
     13  C11       -0.1340   32.0950   56.2640 C.3     0  <0>0        0.1543
     14  C12        0.2120   32.3770   57.7040 C.ar    0  <0>0        0.0334
     15  C17        0.3130   33.6830   58.1490 C.ar    0  <0>0        0.1384
     16  C16        0.6260   33.9400   59.4730 C.ar    0  <0>0        0.0294
     17  F1         0.1010   34.7070   57.2940 F       0  <0>0       -0.2044
     18  C15        0.8470   32.8930   60.3460 C.ar    0  <0>0        0.0023
     19  C14        0.7520   31.5880   59.9000 C.ar    0  <0>0       -0.0001
     20  C13        0.4330   31.3290   58.5800 C.ar    0  <0>0        0.0003
     21  O1         1.0670   31.9320   55.5080 O.3     0  <0>0       -0.3782
     22  H20        1.0390   31.1990   54.8790 H       0  <0>0        0.2109
@<TRIPOS>BOND
     1    11     9    1
     2     9    10    1
     3     9     7    1
     4     7     8   ar
     5     7     6   ar
     6     8     3   ar
     7     6     5   ar
     8     2     1    1
     9     3     1    1
    10     3     4   ar
    11     1    12    1
    12    22    21    1
    13     5     4   ar
    14    21    13    1
    15    12    13    1
    16    13    14    1
    17    17    15    1
    18    14    15   ar
    19    14    20   ar
    20    15    16   ar
    21    20    19   ar
    22    16    18   ar
    23    19    18   ar
