@<TRIPOS>MOLECULE
ZINC20430747_replica-1.pdb
 21 21 0 0 0
SMALL
GASTEIGER

@<TRIPOS>ATOM
      1  C7        -0.3620   30.2030   54.3020 C.3     0  <0>0        0.1466
      2  C8        -1.5240   31.1180   53.9110 C.3     0  <0>0        0.0311
      3  C6         0.3540   30.7810   55.4950 C.2     0  <0>0        0.2402
      4  N1         0.9460   31.9880   55.4060 N.am    0  <0>0       -0.3046
      5  H13        0.9050   32.5520   54.4620 H       0  <0>0        0.1494
      6  O1         0.3980   30.1600   56.5360 O.2     0  <0>0       -0.2733
      7  C4         1.6420   32.5510   56.5660 C.3     0  <0>0        0.0717
      8  C5         2.9890   33.1250   56.1230 C.3     0  <0>0        0.0213
      9  C3         0.7910   33.6640   57.1810 C.3     0  <0>0        0.0196
     10  C2         0.3140   33.2330   58.5700 C.3     0  <0>0        0.0017
     11  C1         0.6790   34.3110   59.5920 C.3     0  <0>0        0.0001
     12  N2        -0.8800   28.8740   54.6410 N.pl3   0  <0>0       -0.3266
     13  H17       -1.3800   28.7090   55.6070 H       0  <0>0        0.1472
     14  C9        -0.7400   27.8170   53.7350 C.ar    0  <0>0        0.0513
     15  C14       -0.1310   26.6350   54.1360 C.ar    0  <0>0        0.0499
     16  C13        0.0070   25.5920   53.2390 C.ar    0  <0>0        0.0376
     17 Br          0.5100   26.4520   55.9050 Br      0  <0>0       -0.0476
     18  C12       -0.4630   25.7250   51.9440 C.ar    0  <0>0        0.1407
     19  C11       -1.0710   26.9040   51.5440 C.ar    0  <0>0        0.0309
     20  F1        -0.3280   24.7040   51.0690 F       0  <0>0       -0.2042
     21  C10       -1.2150   27.9460   52.4370 C.ar    0  <0>0        0.0171
@<TRIPOS>BOND
     1    20    18    1
     2    19    18   ar
     3    19    21   ar
     4    18    16   ar
     5    21    14   ar
     6    16    15   ar
     7    14    15   ar
     8    14    12    1
     9     2     1    1
    10    15    17    1
    11     1    12    1
    12     1     3    1
    13     5     4    1
    14    12    13    1
    15     4     3   am
    16     4     7    1
    17     3     6    2
    18     8     7    1
    19     7     9    1
    20     9    10    1
    21    10    11    1
