@<TRIPOS>MOLECULE
ZINC00525230_replica-1.pdb
 26 28 0 0 0
SMALL
GASTEIGER

@<TRIPOS>ATOM
      1  C12       -0.8620   30.0270   54.1660 C.3     0  <0>0        0.1377
      2  C5        -0.4390   28.6240   54.2810 C.ar    0  <0>0       -0.0027
      3  C4         0.2280   28.1770   55.4160 C.ar    0  <0>0        0.0003
      4  C3         0.6280   26.8540   55.5260 C.ar    0  <0>0        0.0366
      5  C2         0.3760   25.9380   54.5290 C.ar    0  <0>0        0.1386
      6  C7        -0.2910   26.3300   53.3500 C.ar    0  <0>0        0.0337
      7  C6        -0.7130   27.6740   53.2040 C.ar    0  <0>0        0.0004
      8  C8        -0.5510   25.4130   52.3190 C.ar    0  <0>0        0.0030
      9  C11       -1.3820   28.0660   52.0380 C.ar    0  <0>0       -0.0002
     10  C10       -1.6180   27.1490   51.0560 C.ar    0  <0>0       -0.0000
     11  C9        -1.2040   25.8270   51.1970 C.ar    0  <0>0        0.0001
     12  O1         0.7800   24.6510   54.6780 O.3     0  <0>0       -0.4714
     13  C1         0.5400   24.0380   55.9460 C.3     0  <0>0        0.2525
     14  N1        -0.0750   30.9780   54.5740 N.3     0  <0>0       -0.1274
     15  N2        -0.5500   31.9420   55.4740 N.am    0  <0>0       -0.2437
     16  H11       -1.4990   32.1330   55.5240 H       0  <0>0        0.1696
     17  C13        0.3130   32.6050   56.2670 C.2     0  <0>0        0.1497
     18  S1         1.3170   31.7390   57.3510 S.2     0  <0>0       -0.0173
     19  N3         0.3890   33.9490   56.2080 N.am    0  <0>0       -0.2949
     20  H12       -0.2370   34.4460   55.6580 H       0  <0>0        0.1539
     21  C14        1.3690   34.6280   56.9390 C.ar    0  <0>0        0.0496
     22  C19        2.6300   34.8280   56.3940 C.ar    0  <0>0        0.0146
     23  C18        3.5960   35.4970   57.1200 C.ar    0  <0>0        0.0013
     24  C17        3.3080   35.9710   58.3870 C.ar    0  <0>0        0.0001
     25  C16        2.0520   35.7730   58.9320 C.ar    0  <0>0        0.0013
     26  C15        1.0810   35.1090   58.2100 C.ar    0  <0>0        0.0146
@<TRIPOS>BOND
     1    10    11   ar
     2    10     9   ar
     3    11     8   ar
     4     9     7   ar
     5     8     6   ar
     6     7     6   ar
     7     7     2   ar
     8     6     5   ar
     9     1     2    1
    10     1    14    1
    11     2     3   ar
    12     5    12    1
    13     5     4   ar
    14    14    15    1
    15    12    13    1
    16     3     4   ar
    17    15    16    1
    18    15    17    1
    19    20    19    1
    20    19    17    1
    21    19    21    1
    22    17    18    2
    23    22    21   ar
    24    22    23   ar
    25    21    26   ar
    26    23    24   ar
    27    26    25   ar
    28    24    25   ar
