@<TRIPOS>MOLECULE
ZINC40742067_replica-1.pdb
 27 28 0 0 0
SMALL
GASTEIGER

@<TRIPOS>ATOM
      1  C3         4.8410   35.6410   58.2910 C.ar    0  <0>0        0.1727
      2  C4         3.4760   35.8580   58.1920 C.ar    0  <0>0        0.0338
      3  C5         2.8570   35.8290   56.9570 C.ar    0  <0>0       -0.0397
      4  C6         3.5990   35.5830   55.8150 C.ar    0  <0>0        0.0083
      5  C7         4.9620   35.3650   55.9060 C.ar    0  <0>0        0.0942
      6  C8         5.5880   35.4010   57.1420 C.ar    0  <0>0        0.1831
      7 Cl          5.8890   35.0570   54.4710 Cl      0  <0>0       -0.0790
      8  O2         6.9300   35.1930   57.2320 O.3     0  <0>0       -0.4667
      9  C9         7.7650   36.3530   57.2690 C.3     0  <0>0        0.2330
     10  C10        8.6440   36.2990   58.4920 C.ar    0  <0>0        0.0319
     11  C15        8.5750   37.3060   59.4380 C.ar    0  <0>0        0.0594
     12  C14        9.3780   37.2540   60.5630 C.ar    0  <0>0        0.0408
     13 Cl          7.4750   38.6310   59.2180 Cl      0  <0>0       -0.0824
     14  C13       10.2580   36.1990   60.7360 C.ar    0  <0>0        0.1410
     15  C12       10.3300   35.1960   59.7860 C.ar    0  <0>0        0.0295
     16  F1        11.0460   36.1510   61.8330 F       0  <0>0       -0.2041
     17  C11        9.5240   35.2460   58.6640 C.ar    0  <0>0        0.0025
     18  O1         5.4500   35.6700   59.5050 O.3     0  <0>0       -0.4724
     19  C2         5.2750   34.5280   60.3460 C.3     0  <0>0        0.2057
     20  C1         6.5750   33.7220   60.3890 C.3     0  <0>0        0.0512
     21  C16        1.3730   36.0640   56.8530 C.3     0  <0>0       -0.0541
     22  N1         0.7310   34.8870   56.2510 N.4     0  <0>0        0.3878
     23  H15       -0.2640   35.0400   56.1950 H       0  <0>0       -0.0839
     24  H23        1.1020   34.7380   55.3260 H       0  <0>0       -0.0839
     25  C17        0.9980   33.7060   57.0820 C.3     0  <0>0       -0.0616
     26  C18       -0.0850   33.5820   58.1560 C.3     0  <0>0       -0.0234
     27  C19        0.9900   32.4530   56.2040 C.3     0  <0>0       -0.0234
@<TRIPOS>BOND
     1     7     5    1
     2    24    22    1
     3     4     5   ar
     4     4     3   ar
     5     5     6   ar
     6    23    22    1
     7    27    25    1
     8    22    21    1
     9    22    25    1
    10    21     3    1
    11     3     2   ar
    12    25    26    1
    13     6     8    1
    14     6     1   ar
    15     8     9    1
    16     9    10    1
    17     2     1   ar
    18     1    18    1
    19    10    17   ar
    20    10    11   ar
    21    17    15   ar
    22    13    11    1
    23    11    12   ar
    24    18    19    1
    25    15    14   ar
    26    19    20    1
    27    12    14   ar
    28    14    16    1
