@<TRIPOS>MOLECULE
ZINC40188633_replica-1.pdb
 28 30 0 0 0
SMALL
GASTEIGER

@<TRIPOS>ATOM
      1  C6         4.5610   34.6120   57.7220 C.2     0  <0>0        0.1781
      2  N2         3.4600   35.3030   57.6650 N.2     0  <0>0       -0.3921
      3  C7         2.6140   34.8960   58.6470 C.2     0  <0>0        0.1324
      4  C8         1.3300   35.2870   59.0340 C.2     0  <0>0        0.0296
      5  C9         0.7220   34.6730   60.0920 C.2     0  <0>0        0.0021
      6  C10        1.3680   33.6600   60.7890 C.2     0  <0>0       -0.0024
      7  C11        2.6350   33.2590   60.4240 C.2     0  <0>0        0.0004
      8  C12        3.2680   33.8710   59.3510 C.3     0  <0>0        0.1498
      9  N3         4.4950   33.7110   58.7400 N.pl3   0  <0>0       -0.2737
     10  C13        5.5340   32.7500   59.1170 C.3     0  <0>0        0.1407
     11  C14        6.3120   33.2870   60.3200 C.3     0  <0>0        0.2268
     12  O2         6.2240   34.7130   60.3480 O.3     0  <0>0       -0.4739
     13  C15        7.3930   35.4030   60.4030 C.ar    0  <0>0        0.1343
     14  C20        7.3900   36.7860   60.2960 C.ar    0  <0>0        0.0121
     15  C19        8.5800   37.4850   60.3580 C.ar    0  <0>0       -0.0016
     16  C21        6.0890   37.5250   60.1150 C.3     0  <0>0        0.0342
     17  C18        9.7750   36.8060   60.5170 C.ar    0  <0>0       -0.0044
     18  C17        9.7800   35.4270   60.6200 C.ar    0  <0>0       -0.0189
     19  C16        8.5930   34.7240   60.5640 C.ar    0  <0>0        0.0323
     20  C22       11.0850   34.6920   60.7940 C.3     0  <0>0        0.0311
     21  C4         5.7360   34.7790   56.7930 C.3     0  <0>0        0.1389
     22  C5         5.4620   34.0370   55.4840 C.3     0  <0>0        0.0305
     23  N1         5.9370   36.2040   56.5140 N.am    0  <0>0       -0.2989
     24  C3         7.1690   36.7420   56.6120 C.2     0  <0>0        0.2227
     25  O1         8.1110   36.0480   56.9310 O.2     0  <0>0       -0.2751
     26  H7         5.1840   36.7590   56.2570 H       0  <0>0        0.1498
     27  C2         7.3760   38.2070   56.3240 C.3     0  <0>0        0.0851
     28  C1         8.6370   38.6950   57.0410 C.3     0  <0>0        0.0101
@<TRIPOS>BOND
     1    22    21    1
     2    26    23    1
     3    27    24    1
     4    27    28    1
     5    23    24   am
     6    23    21    1
     7    24    25    2
     8    21     1    1
     9     2     1    2
    10     2     3    2
    11     1     9    1
    12     3     4    1
    13     3     8    1
    14     9    10    1
    15     9     8    1
    16     4     5    2
    17    10    11    1
    18     8     7    1
    19     5     6    1
    20    16    14    1
    21    14    15   ar
    22    14    13   ar
    23    11    12    1
    24    12    13    1
    25    15    17   ar
    26    13    19   ar
    27     7     6    2
    28    17    18   ar
    29    19    18   ar
    30    18    20    1
