@<TRIPOS>MOLECULE
ZINC13301985_replica-1.pdb
 23 25 0 0 0
SMALL
GASTEIGER

@<TRIPOS>ATOM
      1  C7        -0.7380   28.9220   55.7790 C.3     0  <0>0        0.0808
      2  C8        -1.4540   29.5710   54.6140 C.3     0  <0>0        0.0370
      3  C9        -1.2970   28.5810   53.4840 C.ar    0  <0>0       -0.0079
      4  C10       -1.7230   28.5870   52.1730 C.ar    0  <0>0       -0.0030
      5  C11       -1.4280   27.5190   51.3460 C.ar    0  <0>0       -0.0002
      6  C12       -0.7070   26.4460   51.8380 C.ar    0  <0>0        0.0012
      7  C13       -0.2800   26.4350   53.1490 C.ar    0  <0>0        0.0142
      8  C14       -0.5730   27.5090   53.9890 C.ar    0  <0>0        0.0438
      9  N2        -0.2500   27.7280   55.3270 N.pl3   0  <0>0       -0.3070
     10  C15        0.5150   26.7890   56.1510 C.3     0  <0>0        0.1121
     11  C16       -2.9340   29.7800   54.9430 C.3     0  <0>0        0.0061
     12  C17       -0.7920   30.9030   54.2540 C.3     0  <0>0        0.0061
     13  C6        -0.6020   29.4290   57.0270 C.3     0  <0>0        0.0467
     14  C5         0.6760   29.7400   57.5230 C.2     0  <0>0       -0.0133
     15  C4         1.0290   31.0530   57.7390 C.2     0  <0>0        0.0807
     16  C3         2.2510   31.5930   58.2290 C.2     0  <0>0        0.2592
     17  S1         0.0740   32.5440   57.4870 S.3     0  <0>0       -0.0607
     18  N1         2.3490   32.9050   58.3500 N.am    0  <0>0       -0.2441
     19  O1         3.1810   30.8650   58.5300 O.2     0  <0>0       -0.2690
     20  C18        1.3170   33.7130   58.0190 C.2     0  <0>0        0.1212
     21  S2         1.2230   35.4210   58.0920 S.2     0  <0>0       -0.0272
     22  C2         3.5930   33.4940   58.8530 C.3     0  <0>0        0.0995
     23  C1         3.5150   33.6300   60.3750 C.3     0  <0>0        0.0237
@<TRIPOS>BOND
     1     5     6   ar
     2     5     4   ar
     3     6     7   ar
     4     4     3   ar
     5     7     8   ar
     6     3     8   ar
     7     3     2    1
     8     8     9    1
     9    12     2    1
    10     2    11    1
    11     2     1    1
    12     9     1    1
    13     9    10    1
    14     1    13    1
    15    13    14    1
    16    17    15    1
    17    17    20    1
    18    14    15    2
    19    15    16    1
    20    20    21    2
    21    20    18    1
    22    16    18   am
    23    16    19    2
    24    18    22    1
    25    22    23    1
