@<TRIPOS>MOLECULE
ZINC03953784_replica-1.pdb
 22 23 0 0 0
SMALL
GASTEIGER

@<TRIPOS>ATOM
      1  C9        -1.5390   31.1820   56.3910 C.2     0  <0>0        0.0014
      2  C10       -0.2580   31.6100   56.4550 C.2     0  <0>0        0.0014
      3  C8        -2.0260   30.5120   55.1870 C.2     0  <0>0        0.0159
      4  C7        -1.1720   30.2080   54.1950 C.2     0  <0>0        0.0619
      5  N1        -1.6330   29.5730   53.0540 N.pl3   0  <0>0       -0.3116
      6  H6        -2.2350   30.0370   52.4500 H       0  <0>0        0.1523
      7  C4        -1.2320   28.2670   52.7710 C.ar    0  <0>0        0.0483
      8  C3        -0.4160   27.5790   53.6620 C.ar    0  <0>0        0.0146
      9  C2        -0.0210   26.2870   53.3790 C.ar    0  <0>0        0.0013
     10  C1        -0.4360   25.6760   52.2090 C.ar    0  <0>0        0.0001
     11  C6        -1.2480   26.3570   51.3200 C.ar    0  <0>0        0.0013
     12  C5        -1.6470   27.6500   51.5970 C.ar    0  <0>0        0.0146
     13  C11        0.2300   32.2800   57.6600 C.2     0  <0>0        0.0159
     14  C12       -0.1750   33.5300   57.9440 C.2     0  <0>0        0.0619
     15  N2         0.2870   34.1640   59.0840 N.pl3   0  <0>0       -0.3116
     16  H13       -0.3240   34.3550   59.8140 H       0  <0>0        0.1523
     17  C13        1.6300   34.5300   59.1840 C.ar    0  <0>0        0.0483
     18  C18        2.4920   33.8040   59.9990 C.ar    0  <0>0        0.0146
     19  C17        3.8210   34.1660   60.0900 C.ar    0  <0>0        0.0013
     20  C16        4.2930   35.2570   59.3830 C.ar    0  <0>0        0.0001
     21  C15        3.4370   35.9850   58.5770 C.ar    0  <0>0        0.0013
     22  C14        2.1080   35.6260   58.4760 C.ar    0  <0>0        0.0146
@<TRIPOS>BOND
     1    11    12   ar
     2    11    10   ar
     3    12     7   ar
     4    10     9   ar
     5     6     5    1
     6     7     5    1
     7     7     8   ar
     8     5     4    1
     9     9     8   ar
    10     4     3    2
    11     3     1    1
    12     1     2    2
    13     2    13    1
    14    13    14    2
    15    14    15    1
    16    22    21   ar
    17    22    17   ar
    18    21    20   ar
    19    15    17    1
    20    15    16    1
    21    17    18   ar
    22    20    19   ar
    23    18    19   ar
