@<TRIPOS>MOLECULE
ZINC02259382_replica-1.pdb
 26 28 0 0 0
SMALL
GASTEIGER

@<TRIPOS>ATOM
      1  C9         8.6360   35.8410   57.2560 C.2     0  <0>0        0.0142
      2  C10        7.3400   35.5570   56.9640 C.2     0  <0>0        0.0854
      3  C11        6.1910   35.3720   57.8710 C.2     0  <0>0        0.2633
      4  O3         6.3080   35.4660   59.0790 O.2     0  <0>0       -0.2687
      5  N1         5.0270   35.0990   57.3040 N.am    0  <0>0       -0.2223
      6  C12        4.9030   34.9910   55.9660 C.2     0  <0>0        0.1250
      7  S1         3.4980   34.6410   55.0540 S.2     0  <0>0       -0.0269
      8  S2         6.5590   35.3040   55.3760 S.3     0  <0>0       -0.0601
      9  C6         9.0210   36.1820   58.6300 C.ar    0  <0>0        0.0377
     10  C5         8.8730   37.4940   59.0980 C.ar    0  <0>0        0.0032
     11  C4         9.2370   37.8090   60.3890 C.ar    0  <0>0        0.0033
     12  C3         9.7480   36.8350   61.2300 C.ar    0  <0>0        0.0400
     13  C2         9.9010   35.5320   60.7830 C.ar    0  <0>0        0.1724
     14  C7         9.5340   35.1950   59.4850 C.ar    0  <0>0        0.1723
     15  O1        10.4040   34.5810   61.6150 O.3     0  <0>0       -0.4684
     16  C1        11.8200   34.5750   61.8120 C.3     0  <0>0        0.2526
     17  O2         9.6760   33.9180   59.0450 O.3     0  <0>0       -0.4684
     18  C8         8.6710   32.9810   59.4360 C.3     0  <0>0        0.2526
     19  C13        3.8980   34.9130   58.1150 C.ar    0  <0>0        0.0602
     20  C18        3.7100   33.7080   58.7790 C.ar    0  <0>0        0.0275
     21  C17        2.5960   33.5270   59.5770 C.ar    0  <0>0        0.0694
     22  C16        1.6690   34.5450   59.7130 C.ar    0  <0>0        0.0683
     23 Cl          2.3600   32.0210   60.4070 Cl      0  <0>0       -0.0813
     24  C15        1.8550   35.7470   59.0520 C.ar    0  <0>0        0.0135
     25 Cl          0.2750   34.3180   60.7220 Cl      0  <0>0       -0.0814
     26  C14        2.9660   35.9330   58.2540 C.ar    0  <0>0        0.0162
@<TRIPOS>BOND
     1     7     6    2
     2     8     6    1
     3     8     2    1
     4     6     5    1
     5     2     1    2
     6     2     3    1
     7     1     9    1
     8     5     3   am
     9     5    19    1
    10     3     4    2
    11    19    26   ar
    12    19    20   ar
    13    26    24   ar
    14     9    10   ar
    15     9    14   ar
    16    20    21   ar
    17    17    18    1
    18    17    14    1
    19    24    22   ar
    20    10    11   ar
    21    14    13   ar
    22    21    22   ar
    23    21    23    1
    24    22    25    1
    25    11    12   ar
    26    13    12   ar
    27    13    15    1
    28    15    16    1
