@<TRIPOS>MOLECULE
ZINC02438405_replica-1.pdb
 25 28 0 0 0
SMALL
GASTEIGER

@<TRIPOS>ATOM
      1  N1         6.9970   34.5840   58.4420 N.am    0  <0>0       -0.2224
      2  C8         7.7550   35.3930   59.1630 C.2     0  <0>0        0.2634
      3  O1         7.5670   36.5930   59.1900 O.2     0  <0>0       -0.2687
      4  C9         8.8480   34.7570   59.9380 C.2     0  <0>0        0.0891
      5  C10        9.7720   35.3240   60.7560 C.2     0  <0>0        0.0585
      6  S1         8.6100   33.0400   59.5050 S.3     0  <0>0       -0.0599
      7  C18        7.2110   33.2530   58.4160 C.2     0  <0>0        0.1250
      8  S2         6.3440   32.0550   57.5540 S.2     0  <0>0       -0.0269
      9  C11       10.7690   34.4870   61.4250 C.2     0  <0>0        0.1809
     10  N3        12.0170   34.8310   61.6540 N.2     0  <0>0       -0.3895
     11  C17       12.6580   33.8300   62.2860 C.2     0  <0>0        0.1326
     12  C12       11.7320   32.7840   62.4600 C.3     0  <0>0        0.1467
     13  C16       13.9690   33.6720   62.7550 C.2     0  <0>0        0.0296
     14  N2        10.5440   33.2230   61.9130 N.pl3   0  <0>0       -0.3008
     15  C13       12.1250   31.6110   63.0910 C.2     0  <0>0        0.0002
     16  H1         9.6810   32.7180   61.8790 H       0  <0>0        0.1498
     17  C14       13.4210   31.4800   63.5430 C.2     0  <0>0       -0.0024
     18  C15       14.3360   32.5110   63.3710 C.2     0  <0>0        0.0021
     19  C6         5.9480   35.1230   57.6870 C.ar    0  <0>0        0.0590
     20  C5         6.1680   35.5270   56.3770 C.ar    0  <0>0        0.0153
     21  C4         5.1310   36.0560   55.6340 C.ar    0  <0>0        0.0010
     22  C3         3.8760   36.1930   56.1980 C.ar    0  <0>0       -0.0042
     23  C2         3.6540   35.7970   57.5050 C.ar    0  <0>0       -0.0206
     24  C1         2.2840   35.9500   58.1150 C.3     0  <0>0        0.0311
     25  C7         4.6860   35.2640   58.2510 C.ar    0  <0>0        0.0110
@<TRIPOS>BOND
     1    21    22   ar
     2    21    20   ar
     3    22    23   ar
     4    20    19   ar
     5    23    24    1
     6    23    25   ar
     7     8     7    2
     8    19    25   ar
     9    19     1    1
    10     7     1    1
    11     7     6    1
    12     1     2   am
    13     2     3    2
    14     2     4    1
    15     6     4    1
    16     4     5    2
    17     5     9    1
    18     9    10    2
    19     9    14    1
    20    10    11    2
    21    16    14    1
    22    14    12    1
    23    11    12    1
    24    11    13    1
    25    12    15    1
    26    13    18    2
    27    15    17    2
    28    18    17    1
