@<TRIPOS>MOLECULE
ZINC06674120_replica-1.pdb
 24 25 0 0 0
SMALL
GASTEIGER

@<TRIPOS>ATOM
      1  C16       -0.1350   32.1720   61.8230 C.3     0  <0>0        0.3091
      2  C17       -0.1910   31.1310   62.8610 C.1     0  <0>0        0.1218
      3  N3        -0.2360   30.3280   63.6630 N.1     0  <0>0       -0.1920
      4  O2         0.9670   31.9150   60.9490 O.3     0  <0>0       -0.4562
      5  C12        0.6790   31.7070   59.6370 C.ar    0  <0>0        0.1738
      6  C11        0.4540   32.7900   58.7990 C.ar    0  <0>0        0.0401
      7  C10        0.1670   32.5850   57.4660 C.ar    0  <0>0        0.0049
      8  C9         0.0920   31.2860   56.9580 C.ar    0  <0>0        0.0239
      9  C14        0.3140   30.1960   57.8030 C.ar    0  <0>0        0.0416
     10  C13        0.6070   30.4080   59.1380 C.ar    0  <0>0        0.1725
     11  C8        -0.2210   31.0650   55.5350 C.2     0  <0>0        0.1176
     12  N2        -1.1880   30.2680   55.1980 N.2     0  <0>0       -0.1798
     13  N1        -1.4860   30.0590   53.8450 N.pl3   0  <0>0       -0.2359
     14  H7        -1.8580   30.7800   53.3140 H       0  <0>0        0.1744
     15  C5        -1.2470   28.8140   53.2620 C.ar    0  <0>0        0.0658
     16  C4        -1.7280   28.5380   51.9870 C.ar    0  <0>0        0.0158
     17  C3        -1.4850   27.3080   51.4100 C.ar    0  <0>0       -0.0021
     18  C2        -0.7730   26.3460   52.1030 C.ar    0  <0>0       -0.0112
     19  C1        -0.5140   25.0020   51.4710 C.3     0  <0>0        0.0319
     20  C7        -0.2960   26.6150   53.3750 C.ar    0  <0>0        0.0550
     21  C6        -0.5320   27.8460   53.9550 C.ar    0  <0>0        0.0271
     22 Cl          0.5980   25.4040   54.2390 Cl      0  <0>0       -0.0825
     23  O1         0.8240   29.3510   59.9640 O.3     0  <0>0       -0.4684
     24  C15       -0.0280   28.2140   59.7990 C.3     0  <0>0        0.2526
@<TRIPOS>BOND
     1    17    16   ar
     2    17    18   ar
     3    19    18    1
     4    16    15   ar
     5    18    20   ar
     6    15    13    1
     7    15    21   ar
     8    14    13    1
     9    20    21   ar
    10    20    22    1
    11    13    12    1
    12    12    11    2
    13    11     8    1
    14     8     7   ar
    15     8     9   ar
    16     7     6   ar
    17     9    10   ar
    18     6     5   ar
    19    10     5   ar
    20    10    23    1
    21     5     4    1
    22    24    23    1
    23     4     1    1
    24     1     2    1
    25     2     3    3
