@<TRIPOS>MOLECULE
ZINC06678041_replica-1.pdb
 29 33 0 0 0
SMALL
GASTEIGER

@<TRIPOS>ATOM
      1  C8         7.3950   33.8930   58.5620 C.3     0  <0>0        0.1867
      2  N1         7.6360   34.8750   57.4910 N.pl3   0  <0>0       -0.3144
      3  C9         7.9670   36.1990   57.8020 C.ar    0  <0>0        0.0435
      4  C10        7.9640   37.1340   56.7680 C.ar    0  <0>0        0.0141
      5  C11        8.3230   38.4430   57.0120 C.ar    0  <0>0        0.0012
      6  C12        8.6870   38.8350   58.2870 C.ar    0  <0>0       -0.0002
      7  C13        8.6840   37.9160   59.3180 C.ar    0  <0>0       -0.0014
      8  C14        8.3200   36.6030   59.0820 C.ar    0  <0>0        0.0108
      9  C15        8.3090   35.6250   60.2270 C.3     0  <0>0        0.1227
     10  N2         8.3080   34.2640   59.6530 N.pl3   0  <0>0       -0.2098
     11  N3         9.3030   33.5170   60.2610 N.2     0  <0>0       -0.1845
     12  C16       10.0770   34.2150   61.0260 C.2     0  <0>0        0.0782
     13  C17        9.6160   35.6780   61.0320 C.3     0  <0>0        0.0733
     14  H10        7.5650   34.6020   56.5640 H       0  <0>0        0.1486
     15  C5         5.9640   33.9720   59.0280 C.ar    0  <0>0        0.0161
     16  C4         5.5760   33.3180   60.1820 C.ar    0  <0>0        0.0021
     17  C3         4.2650   33.3880   60.6120 C.ar    0  <0>0        0.0367
     18  C2         3.3370   34.1180   59.8830 C.ar    0  <0>0        0.1387
     19  C7         3.7290   34.7750   58.7260 C.ar    0  <0>0        0.0367
     20  C6         5.0420   34.7060   58.3030 C.ar    0  <0>0        0.0021
     21  O1         2.0470   34.1900   60.3030 O.3     0  <0>0       -0.4714
     22  C1         1.1320   34.9080   59.4720 C.3     0  <0>0        0.2525
     23  C18       11.2320   33.6860   61.7760 C.ar    0  <0>0        0.0152
     24  C23       11.1440   32.4490   62.4190 C.ar    0  <0>0        0.0035
     25  C22       12.2280   31.9600   63.1180 C.ar    0  <0>0        0.0297
     26  C21       13.4020   32.6940   63.1830 C.ar    0  <0>0        0.1401
     27  C20       13.4950   33.9220   62.5470 C.ar    0  <0>0        0.0297
     28  F1        14.4600   32.2100   63.8700 F       0  <0>0       -0.2042
     29  C19       12.4200   34.4180   61.8410 C.ar    0  <0>0        0.0035
@<TRIPOS>BOND
     1    14     2    1
     2     4     5   ar
     3     4     3   ar
     4     5     6   ar
     5     2     3    1
     6     2     1    1
     7     3     8   ar
     8     6     7   ar
     9    20    19   ar
    10    20    15   ar
    11     1    15    1
    12     1    10    1
    13    19    18   ar
    14    15    16   ar
    15     8     7   ar
    16     8     9    1
    17    22    21    1
    18    10     9    1
    19    10    11    1
    20    18    21    1
    21    18    17   ar
    22    16    17   ar
    23     9    13    1
    24    11    12    2
    25    12    13    1
    26    12    23    1
    27    23    29   ar
    28    23    24   ar
    29    29    27   ar
    30    24    25   ar
    31    27    26   ar
    32    25    26   ar
    33    26    28    1
