@<TRIPOS>MOLECULE
ZINC54713106_replica-1.pdb
 20 20 0 0 0
SMALL
GASTEIGER

@<TRIPOS>ATOM
      1  C7        10.9390   35.7560   61.2370 C.ar    0  <0>0       -0.0045
      2  C8        10.7840   34.8410   60.2140 C.ar    0  <0>0       -0.0030
      3  C9         9.8580   35.0720   59.2140 C.ar    0  <0>0       -0.0046
      4  C10        9.0860   36.2180   59.2380 C.ar    0  <0>0       -0.0228
      5  C11        9.2420   37.1340   60.2620 C.ar    0  <0>0       -0.0046
      6  C12       10.1650   36.9010   61.2640 C.ar    0  <0>0       -0.0030
      7  C5        11.9500   35.5040   62.3270 C.3     0  <0>0        0.0941
      8  C6        11.5620   36.3010   63.5740 C.3     0  <0>0        0.0262
      9  N1        11.9750   34.0750   62.6480 N.am    0  <0>0       -0.3022
     10  C4        13.1420   33.4010   62.6290 C.2     0  <0>0        0.2234
     11  O1        14.1710   33.9770   62.3460 O.2     0  <0>0       -0.2751
     12  H8        11.1520   33.6140   62.8760 H       0  <0>0        0.1497
     13  C2        13.1680   31.9310   62.9600 C.3     0  <0>0        0.0927
     14  C1        14.1680   31.6800   64.0920 C.3     0  <0>0        0.0109
     15  C3        11.7730   31.4830   63.4030 C.3     0  <0>0        0.1039
     16 Cl         11.8760   29.8450   64.1490 Cl      0  <0>0       -0.1132
     17  C13        8.0780   36.4710   58.1470 C.3     0  <0>0        0.0189
     18  C14        7.9760   35.2360   57.2510 C.3     0  <0>0        0.0044
     19  C15        6.7120   36.7610   58.7740 C.3     0  <0>0        0.0044
     20  C16        8.5200   37.6740   57.3110 C.3     0  <0>0        0.0044
@<TRIPOS>BOND
     1    18    17    1
     2    20    17    1
     3    17    19    1
     4    17     4    1
     5     3     4   ar
     6     3     2   ar
     7     4     5   ar
     8     2     1   ar
     9     5     6   ar
    10     1     6   ar
    11     1     7    1
    12     7     9    1
    13     7     8    1
    14    11    10    2
    15    10     9   am
    16    10    13    1
    17     9    12    1
    18    13    15    1
    19    13    14    1
    20    15    16    1
