@<TRIPOS>MOLECULE
ZINC62752391_replica-1.pdb
 21 22 0 0 0
SMALL
GASTEIGER

@<TRIPOS>ATOM
      1  C4         8.1570   38.0580   59.5150 C.3     0  <0>0       -0.0020
      2  C5         8.3980   38.6990   58.1460 C.3     0  <0>0        0.0004
      3  C6         8.4840   37.6050   57.0800 C.3     0  <0>0        0.0092
      4  C7         7.1720   36.8170   57.0500 C.3     0  <0>0        0.0847
      5  C8         6.9320   36.1780   58.4190 C.3     0  <0>0       -0.0472
      6  C9         6.8450   37.2710   59.4850 C.3     0  <0>0       -0.0203
      7  N1         5.6720   35.4210   58.3910 N.4     0  <0>0        0.3886
      8  C14        5.7610   34.2900   59.3230 C.3     0  <0>0       -0.0772
      9  C13        4.4830   33.4530   59.2370 C.3     0  <0>0       -0.0209
     10  C12        3.2810   34.3260   59.6070 C.3     0  <0>0       -0.0042
     11  C11        3.2410   35.5420   58.6750 C.3     0  <0>0       -0.0229
     12  C10        4.5660   36.3020   58.7810 C.3     0  <0>0       -0.0772
     13  H31        5.5100   35.0740   57.4570 H       0  <0>0       -0.0796
     14  C15        4.5780   32.2750   60.2110 C.3     0  <0>0       -0.0021
     15  C16        5.1410   32.7640   61.5470 C.3     0  <0>0       -0.0001
     16  C17        7.2570   35.7400   56.0000 C.2     0  <0>0        0.3623
     17  O1         6.9660   35.9930   54.8440 O.co2   0  <0>0       -0.2458
     18  O2         7.6190   34.6170   56.3070 O.co2   0  <0>0       -0.2458
     19  C3         9.3130   37.1130   59.8460 C.3     0  <0>0       -0.0001
     20  C2         9.3420   36.8520   61.3540 C.3     0  <0>0       -0.0000
     21  C1        10.7360   36.3720   61.7610 C.3     0  <0>0       -0.0000
@<TRIPOS>BOND
     1    17    16   ar
     2    16    18   ar
     3    16     4    1
     4     4     3    1
     5     4     5    1
     6     3     2    1
     7    13     7    1
     8     2     1    1
     9     7     5    1
    10     7    12    1
    11     7     8    1
    12     5     6    1
    13    11    12    1
    14    11    10    1
    15     9     8    1
    16     9    10    1
    17     9    14    1
    18     6     1    1
    19     1    19    1
    20    19    20    1
    21    14    15    1
    22    20    21    1
