@<TRIPOS>MOLECULE
ZINC49373403_replica-1.pdb
 20 22 0 0 0
SMALL
GASTEIGER

@<TRIPOS>ATOM
      1  C8         9.8930   35.7320   60.6870 C.1     0  <0>0        0.1490
      2  N1        10.5490   34.5980   60.9420 N.2     0  <0>0       -0.3093
      3  C9        11.4780   34.8110   61.8510 C.2     0  <0>0        0.3172
      4  O2        11.4300   36.1100   62.1960 O.2     0  <0>0       -0.3111
      5  N2        10.3900   36.6880   61.4190 N.2     0  <0>0       -0.0076
      6  C7         8.7620   35.8840   59.7040 C.3     0  <0>0        0.3191
      7  O1         9.2720   35.7940   58.3720 O.3     0  <0>0       -0.4577
      8  C4         8.3620   35.6850   57.3680 C.ar    0  <0>0        0.1523
      9  C3         7.8610   34.4390   57.0150 C.ar    0  <0>0        0.0690
     10  C2         6.9360   34.3320   55.9960 C.ar    0  <0>0        0.0098
     11 Br          8.4440   32.8910   57.9320 Br      0  <0>0       -0.0458
     12  C1         6.5080   35.4630   55.3250 C.ar    0  <0>0        0.0012
     13  C6         7.0050   36.7050   55.6740 C.ar    0  <0>0        0.0098
     14  C5         7.9320   36.8190   56.6940 C.ar    0  <0>0        0.0690
     15 Br          8.6120   38.5180   57.1690 Br      0  <0>0       -0.0458
     16  C10       12.4070   33.8040   62.3930 C.ar    0  <0>0        0.0762
     17  C13       11.9600   32.6020   62.8620 C.ar    0  <0>0        0.0413
     18  S1        13.3500   31.8080   63.3620 S.2     0  <0>0       -0.0857
     19  C12       14.5690   33.0480   62.9760 C.ar    0  <0>0        0.0357
     20  C11       13.8270   34.0490   62.4570 C.ar    0  <0>0        0.0134
@<TRIPOS>BOND
     1    12    13   ar
     2    12    10   ar
     3    13    14   ar
     4    10     9   ar
     5    14    15    1
     6    14     8   ar
     7     9     8   ar
     8     9    11    1
     9     8     7    1
    10     7     6    1
    11     6     1    1
    12     1     2    2
    13     1     5    2
    14     2     3    2
    15     5     4    1
    16     3     4    1
    17     3    16    1
    18    16    20   ar
    19    16    17   ar
    20    20    19   ar
    21    17    18   ar
    22    19    18   ar
