@<TRIPOS>MOLECULE
ZINC14480003_replica-1.pdb
 27 30 0 0 0
SMALL
GASTEIGER

@<TRIPOS>ATOM
      1  C8         0.0130   28.6420   55.1100 C.3     0  <0>0        0.0921
      2  C9        -1.0960   28.8360   56.1290 C.3     0  <0>0        0.0262
      3  C10       -1.7890   27.5650   56.6280 C.3     0  <0>0        0.0023
      4  C11       -2.2320   28.0060   58.0250 C.3     0  <0>0        0.0004
      5  C12       -1.4290   28.9620   58.4760 C.3     0  <0>0        0.0045
      6  C13       -0.3790   29.2180   57.4570 C.3     0  <0>0        0.0255
      7  C14        0.2310   30.5530   57.2790 C.ar    0  <0>0       -0.0080
      8  C15        0.3240   31.4680   58.3060 C.ar    0  <0>0        0.0168
      9  C16        0.9250   32.6950   58.0940 C.ar    0  <0>0        0.1220
     10  C17        1.4330   33.0100   56.8470 C.ar    0  <0>0        0.0211
     11  C18        1.3380   32.1040   55.8110 C.ar    0  <0>0        0.0154
     12  C19        0.7330   30.8700   56.0120 C.ar    0  <0>0        0.0408
     13  N1         0.6350   29.9720   54.9410 N.pl3   0  <0>0       -0.3308
     14  H18        0.9840   30.2280   54.0720 H       0  <0>0        0.1471
     15  C6        -0.5590   28.1640   53.8010 C.ar    0  <0>0       -0.0049
     16  C5        -1.3840   28.9930   53.0650 C.ar    0  <0>0       -0.0027
     17  C4        -1.9090   28.5550   51.8630 C.ar    0  <0>0       -0.0006
     18  C3        -1.6100   27.2870   51.3980 C.ar    0  <0>0       -0.0043
     19  C2        -0.7820   26.4600   52.1340 C.ar    0  <0>0       -0.0221
     20  C1        -0.4510   25.0800   51.6250 C.3     0  <0>0        0.0310
     21  C7        -0.2610   26.8960   53.3370 C.ar    0  <0>0       -0.0069
     22  S1         1.0400   33.8590   59.4120 S.O2    0  <0>0        0.0634
     23  O1         0.7910   35.1380   58.8470 O.2     0  <0>0       -0.1528
     24  O2         0.2660   33.3360   60.4840 O.2     0  <0>0       -0.1528
     25  N2         2.6140   33.8640   59.9240 N.3     0  <0>0       -0.1526
     26  C20        3.5540   34.8540   59.3890 C.3     0  <0>0        0.1150
     27  C21        3.0680   32.8820   60.9110 C.3     0  <0>0        0.1150
@<TRIPOS>BOND
     1    18    17   ar
     2    18    19   ar
     3    20    19    1
     4    17    16   ar
     5    19    21   ar
     6    16    15   ar
     7    21    15   ar
     8    15     1    1
     9    14    13    1
    10    13     1    1
    11    13    12    1
    12     1     2    1
    13    11    12   ar
    14    11    10   ar
    15    12     7   ar
    16     2     3    1
    17     2     6    1
    18     3     4    1
    19    10     9   ar
    20     7     6    1
    21     7     8   ar
    22     6     5    1
    23     4     5    1
    24     9     8   ar
    25     9    22    1
    26    23    22    2
    27    26    25    1
    28    22    25    1
    29    22    24    2
    30    25    27    1
