@<TRIPOS>MOLECULE
ZINC45620650_replica-1.pdb
 26 28 0 0 0
SMALL
GASTEIGER

@<TRIPOS>ATOM
      1  S1         7.8230   33.5630   59.6760 S.O2    0  <0>0        0.0765
      2  O2         8.7400   32.8000   58.9030 O.2     0  <0>0       -0.1497
      3  O3         6.9480   32.9690   60.6250 O.2     0  <0>0       -0.1497
      4  N1         8.7170   34.6880   60.4960 N.pl3   0  <0>0       -0.1909
      5  C5         9.8770   34.3110   61.1880 C.ar    0  <0>0        0.0650
      6  C4        10.1170   32.9620   61.4200 C.ar    0  <0>0        0.0189
      7  C6        10.7780   35.2640   61.6350 C.ar    0  <0>0       -0.0042
      8  C3        11.2540   32.5670   62.0940 C.ar    0  <0>0        0.0382
      9  C2        12.1590   33.5190   62.5400 C.ar    0  <0>0        0.1385
     10  C7        11.9180   34.8640   62.3150 C.ar    0  <0>0        0.0339
     11  C8        10.5440   36.7360   61.4110 C.3     0  <0>0        0.0296
     12  C9         9.5620   36.9520   60.2600 C.3     0  <0>0        0.0281
     13  C10        8.3100   36.1000   60.5100 C.3     0  <0>0        0.1162
     14  O1        13.2810   33.1330   63.2040 O.3     0  <0>0       -0.4714
     15  C1        13.4490   31.7320   63.4330 C.3     0  <0>0        0.2525
     16  C11        6.8070   34.4370   58.5320 C.ar    0  <0>0        0.1254
     17  C16        7.3730   35.0330   57.4200 C.ar    0  <0>0        0.0249
     18  C15        6.5760   35.7150   56.5200 C.ar    0  <0>0        0.0833
     19  C14        5.2130   35.8090   56.7360 C.ar    0  <0>0        0.0616
     20  C13        4.6480   35.2170   57.8510 C.ar    0  <0>0        0.0127
     21 Cl          4.2130   36.6690   55.6090 Cl      0  <0>0       -0.0823
     22  C12        5.4450   34.5310   58.7480 C.ar    0  <0>0        0.0210
     23  C17        7.1930   36.3600   55.3050 C.3     0  <0>0        0.4194
     24  F1         6.9310   37.7340   55.3220 F       0  <0>0       -0.1658
     25  F2         8.5760   36.1480   55.3170 F       0  <0>0       -0.1658
     26  F3         6.6450   35.7950   54.1490 F       0  <0>0       -0.1658
@<TRIPOS>BOND
     1    26    23    1
     2    23    25    1
     3    23    24    1
     4    23    18    1
     5    21    19    1
     6    18    19   ar
     7    18    17   ar
     8    19    20   ar
     9    17    16   ar
    10    20    22   ar
    11    16    22   ar
    12    16     1    1
    13     2     1    2
    14     1     4    1
    15     1     3    2
    16    12    13    1
    17    12    11    1
    18     4    13    1
    19     4     5    1
    20     5     6   ar
    21     5     7   ar
    22    11     7    1
    23     6     8   ar
    24     7    10   ar
    25     8     9   ar
    26    10     9   ar
    27     9    14    1
    28    14    15    1
