@<TRIPOS>MOLECULE
ZINC35682858_replica-1.pdb
 24 27 0 0 0
SMALL
GASTEIGER

@<TRIPOS>ATOM
      1  N1         5.0570   35.2840   58.2070 N.pl3   0  <0>0       -0.1893
      2  C8         5.8310   36.2690   58.7250 C.3     0  <0>0        0.1828
      3  C9         7.0260   36.2670   58.0730 C.2     0  <0>0        0.1159
      4  N2         6.9530   35.2910   57.1390 N.2     0  <0>0       -0.1470
      5  N3         5.8220   34.6890   57.1930 N.pl3   0  <0>0       -0.0439
      6  C10        8.0580   37.2690   58.5340 C.3     0  <0>0        0.1520
      7  C11        7.4050   38.4370   59.3100 C.3     0  <0>0        0.0961
      8  S1         5.8970   37.5800   59.9230 S.3     0  <0>0       -0.1106
      9  C6         3.7610   34.9280   58.6060 C.ar    0  <0>0        0.0655
     10  C5         2.6630   35.3780   57.8860 C.ar    0  <0>0       -0.0069
     11  C4         1.3870   35.0260   58.2810 C.ar    0  <0>0       -0.0033
     12  C18        2.8620   36.2520   56.6740 C.3     0  <0>0        0.0324
     13  C3         1.2030   34.2230   59.3930 C.ar    0  <0>0       -0.0045
     14  C2         2.2950   33.7720   60.1110 C.ar    0  <0>0       -0.0206
     15  C1         2.0900   32.8990   61.3220 C.3     0  <0>0        0.0311
     16  C7         3.5720   34.1260   59.7250 C.ar    0  <0>0        0.0117
     17  C12        9.0500   36.5750   59.4300 C.ar    0  <0>0        0.0077
     18  C17        9.4610   37.1790   60.6050 C.ar    0  <0>0       -0.0017
     19  C16       10.3680   36.5400   61.4300 C.ar    0  <0>0       -0.0002
     20  C15       10.8710   35.3030   61.0760 C.ar    0  <0>0       -0.0000
     21  C14       10.4650   34.7010   59.9000 C.ar    0  <0>0       -0.0002
     22  C13        9.5540   35.3370   59.0770 C.ar    0  <0>0       -0.0017
     23  O1         8.7450   37.7900   57.3950 O.3     0  <0>0       -0.3764
     24  H14        8.1640   38.1910   56.7340 H       0  <0>0        0.2112
@<TRIPOS>BOND
     1    12    10    1
     2    24    23    1
     3     4     5    1
     4     4     3    2
     5     5     1    1
     6    23     6    1
     7    10    11   ar
     8    10     9   ar
     9     3     6    1
    10     3     2    1
    11     1     9    1
    12     1     2    1
    13    11    13   ar
    14     6     7    1
    15     6    17    1
    16     9    16   ar
    17     2     8    1
    18    22    17   ar
    19    22    21   ar
    20     7     8    1
    21    13    14   ar
    22    17    18   ar
    23    16    14   ar
    24    21    20   ar
    25    14    15    1
    26    18    19   ar
    27    20    19   ar
