@<TRIPOS>MOLECULE
ZINC04915479_replica-1.pdb
 28 31 0 0 0
SMALL
GASTEIGER

@<TRIPOS>ATOM
      1  C8         6.6630   36.3660   56.4360 C.3     0  <0>0        0.0573
      2  C9         6.8510   35.3610   55.2990 C.3     0  <0>0        0.0942
      3  C10        6.9990   33.9790   55.8800 C.2     0  <0>0        0.2265
      4  O2         6.5650   33.0190   55.2800 O.2     0  <0>0       -0.2748
      5  N1         7.6130   33.8070   57.0640 N.am    0  <0>0       -0.2875
      6  C11        8.1360   34.8720   57.7540 C.2     0  <0>0        0.0268
      7  C12        7.7140   36.1270   57.4950 C.2     0  <0>0        0.0261
      8  C13        8.2310   37.2320   58.1920 C.2     0  <0>0        0.1706
      9  O3         7.8370   38.3480   57.9210 O.2     0  <0>0       -0.2916
     10  C14        9.2670   37.0520   59.2700 C.3     0  <0>0        0.0736
     11  C15        9.0910   35.6690   59.9060 C.3     0  <0>0        0.0356
     12  C16        9.1890   34.6110   58.8010 C.3     0  <0>0        0.0458
     13  H12        7.6860   32.9160   57.4380 H       0  <0>0        0.1545
     14  C5         5.2930   36.1910   57.0390 C.ar    0  <0>0       -0.0176
     15  C4         4.1790   36.1450   56.2210 C.ar    0  <0>0       -0.0008
     16  C3         2.9220   35.9840   56.7720 C.ar    0  <0>0        0.0366
     17  C2         2.7780   35.8690   58.1470 C.ar    0  <0>0        0.1387
     18  C7         3.8980   35.9150   58.9660 C.ar    0  <0>0        0.0366
     19  C6         5.1520   36.0700   58.4100 C.ar    0  <0>0       -0.0008
     20  O1         1.5430   35.7100   58.6910 O.3     0  <0>0       -0.4714
     21  C1         0.6180   34.8910   57.9710 C.3     0  <0>0        0.2525
     22  C17       10.1750   35.4400   60.9270 C.ar    0  <0>0       -0.0216
     23  C22       10.6170   36.4890   61.7130 C.ar    0  <0>0       -0.0019
     24  C21       11.6110   36.2800   62.6510 C.ar    0  <0>0        0.0293
     25  C20       12.1650   35.0200   62.8020 C.ar    0  <0>0        0.1401
     26  C19       11.7210   33.9710   62.0150 C.ar    0  <0>0        0.0293
     27  F1        13.1360   34.8140   63.7180 F       0  <0>0       -0.2042
     28  C18       10.7240   34.1810   61.0820 C.ar    0  <0>0       -0.0019
@<TRIPOS>BOND
     1     4     3    2
     2     2     3    1
     3     2     1    1
     4     3     5   am
     5    15    16   ar
     6    15    14   ar
     7     1    14    1
     8     1     7    1
     9    16    17   ar
    10    14    19   ar
    11     5    13    1
    12     5     6    1
    13     7     6    2
    14     7     8    1
    15     6    12    1
    16     9     8    2
    17    21    20    1
    18    17    20    1
    19    17    18   ar
    20     8    10    1
    21    19    18   ar
    22    12    11    1
    23    10    11    1
    24    11    22    1
    25    22    28   ar
    26    22    23   ar
    27    28    26   ar
    28    23    24   ar
    29    26    25   ar
    30    24    25   ar
    31    25    27    1
