@<TRIPOS>MOLECULE
ZINC20878443_replica-1.pdb
 31 33 0 0 0
SMALL
GASTEIGER

@<TRIPOS>ATOM
      1  N2         1.5170   31.4710   56.2140 N.pl3   0  <0>0       -0.3265
      2  H15        2.3330   31.3470   55.4860 H       0  <0>0        0.1472
      3  C10        0.2080   31.1330   55.8610 C.ar    0  <0>0        0.0451
      4  C9        -0.8560   31.5710   56.6390 C.ar    0  <0>0        0.0143
      5  C8        -2.1540   31.2400   56.2940 C.ar    0  <0>0        0.0014
      6  C7        -2.4010   30.4770   55.1710 C.ar    0  <0>0        0.0046
      7  C6        -1.3370   30.0280   54.3860 C.ar    0  <0>0        0.0546
      8  C11       -0.0290   30.3610   54.7340 C.ar    0  <0>0        0.0188
      9  C5        -1.5990   29.2040   53.1850 C.2     0  <0>0        0.2459
     10  N1        -0.9370   28.0430   53.0070 N.am    0  <0>0       -0.3009
     11  H10       -0.1980   27.7120   53.7520 H       0  <0>0        0.1497
     12  O1        -2.4110   29.5730   52.3600 O.2     0  <0>0       -0.2701
     13  C4        -1.2010   27.2240   51.8210 C.3     0  <0>0        0.0896
     14  C2        -0.3010   25.9870   51.8460 C.3     0  <0>0        0.0196
     15  C1         0.1140   25.6890   53.2880 C.3     0  <0>0        0.0017
     16  C3        -1.0630   24.7890   51.2750 C.3     0  <0>0        0.0017
     17  C12        1.8040   31.9890   57.5540 C.3     0  <0>0        0.1528
     18  C13        2.3790   33.3760   57.4440 C.ar    0  <0>0        0.1426
     19  O2         3.5660   33.7740   57.9330 O.2     0  <0>0       -0.4561
     20  C16        3.7540   35.0760   57.6490 C.ar    0  <0>0        0.1449
     21  C15        2.6660   35.5220   56.9640 C.ar    0  <0>0        0.0403
     22  C14        1.7930   34.4240   56.8320 C.ar    0  <0>0        0.0378
     23  C17        4.9370   35.8820   58.0160 C.ar    0  <0>0        0.0356
     24  C22        5.9160   36.1640   57.0610 C.ar    0  <0>0        0.0175
     25  C21        7.0160   36.9230   57.4070 C.ar    0  <0>0        0.0916
     26  C20        7.1540   37.3960   58.7060 C.ar    0  <0>0        0.1492
     27 Cl          8.2300   37.2790   56.2200 Cl      0  <0>0       -0.0791
     28  C19        6.1850   37.1130   59.6590 C.ar    0  <0>0        0.0379
     29  C18        5.0810   36.3610   59.3200 C.ar    0  <0>0        0.0062
     30  O3         8.2410   38.1380   59.0440 O.3     0  <0>0       -0.4706
     31  C23        9.0610   37.6420   60.1040 C.3     0  <0>0        0.2525
@<TRIPOS>BOND
     1    16    14    1
     2    13    14    1
     3    13    10    1
     4    14    15    1
     5    12     9    2
     6    10     9   am
     7    10    11    1
     8     9     7    1
     9     7     8   ar
    10     7     6   ar
    11     8     3   ar
    12     6     5   ar
    13     2     1    1
    14     3     1    1
    15     3     4   ar
    16     1    17    1
    17    27    25    1
    18     5     4   ar
    19    22    21   ar
    20    22    18   ar
    21    21    20   ar
    22    24    25   ar
    23    24    23   ar
    24    25    26   ar
    25    18    17    1
    26    18    19   ar
    27    20    19   ar
    28    20    23    1
    29    23    29   ar
    30    26    30    1
    31    26    28   ar
    32    30    31    1
    33    29    28   ar
