@<TRIPOS>MOLECULE
ZINC00239331_replica-1.pdb
 26 27 0 0 0
SMALL
GASTEIGER

@<TRIPOS>ATOM
      1  C10        1.0490   31.4370   56.0830 C.2     0  <0>0        0.2856
      2  O2         1.3680   31.1250   57.2110 O.2     0  <0>0       -0.2693
      3  N1         1.5940   32.5280   55.5060 N.am    0  <0>0       -0.2028
      4  H12        1.3390   32.7780   54.6050 H       0  <0>0        0.1774
      5  N2         2.5260   33.3010   56.2110 N.2     0  <0>0       -0.1775
      6  C11        3.3900   34.0220   55.5660 C.2     0  <0>0        0.1176
      7  C12        4.3720   34.8350   56.3070 C.ar    0  <0>0        0.0207
      8  C17        5.1590   35.7730   55.6340 C.ar    0  <0>0        0.0013
      9  C16        6.0750   36.5290   56.3340 C.ar    0  <0>0       -0.0042
     10  C15        6.2160   36.3630   57.7000 C.ar    0  <0>0       -0.0228
     11  C14        5.4400   35.4360   58.3740 C.ar    0  <0>0       -0.0042
     12  C13        4.5150   34.6760   57.6880 C.ar    0  <0>0        0.0013
     13  C18        7.2190   37.1940   58.4580 C.3     0  <0>0        0.0189
     14  C19        7.7050   38.3410   57.5700 C.3     0  <0>0        0.0044
     15  C20        6.5610   37.7650   59.7150 C.3     0  <0>0        0.0044
     16  C21        8.4070   36.3190   58.8570 C.3     0  <0>0        0.0044
     17  C9         0.0460   30.6060   55.3250 C.3     0  <0>0        0.2911
     18  O1         0.1270   29.2470   55.7620 O.3     0  <0>0       -0.4656
     19  C5        -0.0360   28.2840   54.8170 C.ar    0  <0>0        0.1390
     20  C4         0.4940   27.0180   55.0170 C.ar    0  <0>0        0.0366
     21  C3         0.3320   26.0430   54.0530 C.ar    0  <0>0       -0.0015
     22  C2        -0.3670   26.3240   52.8940 C.ar    0  <0>0       -0.0256
     23  C1        -0.5470   25.2560   51.8450 C.3     0  <0>0        0.0307
     24  C7        -0.9010   27.5830   52.6940 C.ar    0  <0>0       -0.0228
     25  C6        -0.7370   28.5650   53.6540 C.ar    0  <0>0        0.0324
     26  C8        -1.6630   27.8880   51.4310 C.3     0  <0>0        0.0308
@<TRIPOS>BOND
     1    26    24    1
     2    23    22    1
     3    24    22   ar
     4    24    25   ar
     5    22    21   ar
     6    25    19   ar
     7    21    20   ar
     8     4     3    1
     9    19    20   ar
    10    19    18    1
    11    17    18    1
    12    17     1    1
    13     3     1   am
    14     3     5    1
    15     6     5    2
    16     6     7    1
    17     8     7   ar
    18     8     9   ar
    19     1     2    2
    20     7    12   ar
    21     9    10   ar
    22    14    13    1
    23    12    11   ar
    24    10    11   ar
    25    10    13    1
    26    13    16    1
    27    13    15    1
