@<TRIPOS>MOLECULE
ZINC51362729_replica-1.pdb
 19 21 0 0 0
SMALL
GASTEIGER

@<TRIPOS>ATOM
      1  C1         6.6910   36.4690   58.5900 C.3     0  <0>0        0.1369
      2  N1         7.8830   35.6520   58.8290 N.ar    0  <0>0       -0.2601
      3  C2         8.8390   35.8600   59.8220 C.ar    0  <0>0        0.1000
      4  C3         8.9820   36.8090   60.8230 C.ar    0  <0>0        0.0202
      5  C4        10.0670   36.7510   61.6760 C.ar    0  <0>0       -0.0011
      6  C5        11.0100   35.7480   61.5340 C.ar    0  <0>0        0.0003
      7  C6        10.8740   34.7990   60.5410 C.ar    0  <0>0        0.0364
      8  C7         9.7890   34.8490   59.6800 C.ar    0  <0>0        0.1657
      9  O1         9.3990   34.0750   58.6370 O.2     0  <0>0       -0.4068
     10  C8         8.2520   34.5580   58.1330 C.ar    0  <0>0        0.4220
     11  O2         7.6430   34.0850   57.1940 O.2     0  <0>0       -0.2226
     12  C9        12.1910   35.6920   62.4680 C.3     0  <0>0        0.1303
     13 Cl         11.7710   36.5100   64.0190 Cl      0  <0>0       -0.1048
     14  C10       12.5490   34.2530   62.7410 C.ar    0  <0>0        0.0267
     15  S1        11.4690   32.8670   63.0550 S.2     0  <0>0       -0.0829
     16  C13       12.7220   31.6110   63.2560 C.ar    0  <0>0        0.0635
     17  C12       13.8630   32.3240   63.0810 C.ar    0  <0>0        0.0134
     18 Br         12.5140   29.7690   63.6240 Br      0  <0>0       -0.0419
     19  C11       13.7740   33.6780   62.8160 C.ar    0  <0>0        0.0047
@<TRIPOS>BOND
     1    11    10    2
     2    10     9   ar
     3    10     2   ar
     4     1     2    1
     5     9     8   ar
     6     2     3   ar
     7     8     3   ar
     8     8     7   ar
     9     3     4   ar
    10     7     6   ar
    11     4     5   ar
    12     6     5   ar
    13     6    12    1
    14    12    14    1
    15    12    13    1
    16    14    19   ar
    17    14    15   ar
    18    19    17   ar
    19    15    16   ar
    20    17    16   ar
    21    16    18    1
