@<TRIPOS>MOLECULE
ZINC37607053_replica-1.pdb
 20 20 0 0 0
SMALL
GASTEIGER

@<TRIPOS>ATOM
      1  C4         8.3940   34.1450   58.1490 C.ar    0  <0>0        0.0879
      2  C5         9.3870   34.1300   59.1340 C.ar    0  <0>0        0.0034
      3  C6         9.7960   35.3100   59.7150 C.ar    0  <0>0       -0.0225
      4  C7         9.2270   36.5140   59.3300 C.ar    0  <0>0       -0.0073
      5  C8         8.2470   36.5460   58.3610 C.ar    0  <0>0       -0.0097
      6  C9         7.8250   35.3670   57.7580 C.ar    0  <0>0        0.0437
      7  C3         7.9520   32.8870   57.5240 C.2     0  <0>0        0.3424
      8  O2         8.1910   32.6750   56.3520 O.2     0  <0>0       -0.2448
      9  O1         7.2830   31.9710   58.2510 O.3     0  <0>0       -0.4454
     10  C2         7.9460   30.7300   58.5000 C.3     0  <0>0        0.2089
     11  C1         7.1070   29.5820   57.9340 C.3     0  <0>0        0.0513
     12  N1         6.8420   35.3970   56.7780 N.pl3   0  <0>0       -0.3571
     13  H8         6.8860   34.7830   56.0280 H       0  <0>0        0.1423
     14  H9         6.1110   36.0310   56.8440 H       0  <0>0        0.1423
     15  C10        7.6370   37.8620   57.9500 C.3     0  <0>0        0.0235
     16  C11        7.2820   38.6710   59.1980 C.3     0  <0>0        0.0047
     17  C12        8.6410   38.6460   57.1020 C.3     0  <0>0        0.0047
     18  C13       10.8660   35.2920   60.7760 C.3     0  <0>0        0.0223
     19  C14       10.6260   36.4370   61.7620 C.3     0  <0>0        0.0047
     20  C15       10.8190   33.9570   61.5230 C.3     0  <0>0        0.0047
@<TRIPOS>BOND
     1    13    12    1
     2     8     7    2
     3    12    14    1
     4    12     6    1
     5    17    15    1
     6     7     1    1
     7     7     9    1
     8     6     1   ar
     9     6     5   ar
    10    11    10    1
    11    15     5    1
    12    15    16    1
    13     1     2   ar
    14     9    10    1
    15     5     4   ar
    16     2     3   ar
    17     4     3   ar
    18     3    18    1
    19    18    20    1
    20    18    19    1
