@<TRIPOS>MOLECULE
ZINC37197430_replica-1.pdb
 22 24 0 0 0
SMALL
GASTEIGER

@<TRIPOS>ATOM
      1  C7         9.9350   35.2180   60.6190 C.ar    0  <0>0        0.0450
      2  C8         9.8150   36.5770   60.8900 C.ar    0  <0>0        0.0145
      3  C9         9.3180   37.4400   59.9310 C.ar    0  <0>0        0.0059
      4  C10        8.9370   36.9480   58.6890 C.ar    0  <0>0        0.0584
      5  C11        9.0590   35.5700   58.4110 C.ar    0  <0>0        0.0596
      6  C12        9.5610   34.7140   59.3730 C.ar    0  <0>0        0.0190
      7  C13        8.5740   35.3950   57.0240 C.2     0  <0>0        0.2552
      8  O1         8.5190   34.3440   56.4190 O.2     0  <0>0       -0.2695
      9  N2         8.2010   36.5970   56.5470 N.am    0  <0>0       -0.2211
     10  C14        8.3850   37.5610   57.4670 C.2     0  <0>0        0.2551
     11  O2         8.1380   38.7400   57.3150 O.2     0  <0>0       -0.2695
     12  C15        7.6660   36.8250   55.2020 C.3     0  <0>0        0.1234
     13  N1        10.4340   34.3600   61.5920 N.pl3   0  <0>0       -0.3302
     14  H7         9.8390   33.7410   62.0450 H       0  <0>0        0.1471
     15  C2        11.8580   34.3890   61.9340 C.3     0  <0>0        0.0985
     16  C1        12.1360   35.5750   62.8590 C.3     0  <0>0        0.0267
     17  C3        12.2340   33.1080   62.6320 C.ar    0  <0>0        0.0312
     18  S1        11.1860   31.7550   63.1380 S.2     0  <0>0       -0.0887
     19  C6        12.4470   30.7140   63.8560 C.ar    0  <0>0        0.0357
     20  C5        13.5640   31.4590   63.6700 C.ar    0  <0>0        0.0139
     21  C4        13.4550   32.6850   63.0430 C.ar    0  <0>0        0.0386
     22 Br         14.9860   33.7590   62.7620 Br      0  <0>0       -0.0487
@<TRIPOS>BOND
     1    12     9    1
     2     8     7    2
     3     9     7   am
     4     9    10   am
     5     7     5    1
     6    11    10    2
     7    10     4    1
     8     5     4   ar
     9     5     6   ar
    10     4     3   ar
    11     6     1   ar
    12     3     2   ar
    13     1     2   ar
    14     1    13    1
    15    13    15    1
    16    13    14    1
    17    15    17    1
    18    15    16    1
    19    17    21   ar
    20    17    18   ar
    21    22    21    1
    22    21    20   ar
    23    18    19   ar
    24    20    19   ar
