@<TRIPOS>MOLECULE
ZINC58847114_replica-1.pdb
 34 38 0 0 0
SMALL
GASTEIGER

@<TRIPOS>ATOM
      1  C7         0.3110   28.4040   55.0050 C.3     0  <0>0        0.0937
      2  C8        -0.5490   28.0320   56.1750 C.3     0  <0>0        0.0263
      3  C9        -2.0220   28.4440   55.9740 C.3     0  <0>0        0.0023
      4  C10       -2.5340   28.6540   57.3830 C.3     0  <0>0        0.0004
      5  C11       -1.5430   28.7960   58.2240 C.3     0  <0>0        0.0045
      6  C12       -0.2250   28.7300   57.4940 C.3     0  <0>0        0.0255
      7  C13        0.2760   30.1350   57.3120 C.ar    0  <0>0       -0.0080
      8  C14        0.3140   30.9690   58.4200 C.ar    0  <0>0        0.0171
      9  C15        0.7550   32.2710   58.3010 C.ar    0  <0>0        0.1249
     10  C16        1.1630   32.7560   57.0720 C.ar    0  <0>0        0.0214
     11  C17        1.1330   31.9330   55.9640 C.ar    0  <0>0        0.0154
     12  C18        0.6930   30.6170   56.0850 C.ar    0  <0>0        0.0408
     13  N1         0.7160   29.7940   54.9750 N.pl3   0  <0>0       -0.3308
     14  H14        0.9920   30.1790   54.1290 H       0  <0>0        0.1471
     15  S1         0.7980   33.3180   59.7170 S.O2    0  <0>0        0.0736
     16  O1         0.4160   34.6140   59.2770 O.2     0  <0>0       -0.1499
     17  O2         0.1070   32.6310   60.7520 O.2     0  <0>0       -0.1499
     18  N2         2.3800   33.4280   60.1970 N.pl3   0  <0>0       -0.2150
     19  H15        2.6400   33.1240   61.0800 H       0  <0>0        0.1737
     20  C19        3.3380   33.9580   59.3280 C.ar    0  <0>0        0.0649
     21  C24        4.3070   33.1310   58.7760 C.ar    0  <0>0        0.0182
     22  C23        5.2510   33.6550   57.9140 C.ar    0  <0>0        0.0309
     23  C22        5.2360   35.0050   57.6080 C.ar    0  <0>0        0.1402
     24  C21        4.2740   35.8320   58.1620 C.ar    0  <0>0        0.0309
     25  F1         6.1630   35.5160   56.7680 F       0  <0>0       -0.2042
     26  C20        3.3260   35.3120   59.0200 C.ar    0  <0>0        0.0182
     27  C4        -0.4480   28.1000   53.7390 C.ar    0  <0>0        0.0166
     28  C3        -0.3550   26.8470   53.1610 C.ar    0  <0>0        0.0560
     29  C2        -1.0520   26.5680   51.9990 C.ar    0  <0>0        0.0112
     30 Cl          0.6350   25.6240   53.8940 Cl      0  <0>0       -0.0825
     31  C1        -1.8420   27.5410   51.4160 C.ar    0  <0>0        0.0017
     32  C6        -1.9350   28.7940   51.9930 C.ar    0  <0>0        0.0112
     33  C5        -1.2390   29.0740   53.1550 C.ar    0  <0>0        0.0560
     34 Cl         -1.3550   30.6470   53.8800 Cl      0  <0>0       -0.0825
@<TRIPOS>BOND
     1    31    32   ar
     2    31    29   ar
     3    32    33   ar
     4    29    28   ar
     5    33    27   ar
     6    33    34    1
     7    28    27   ar
     8    28    30    1
     9    27     1    1
    10    14    13    1
    11    13     1    1
    12    13    12    1
    13     1     2    1
    14    11    12   ar
    15    11    10   ar
    16     3     2    1
    17     3     4    1
    18    12     7   ar
    19     2     6    1
    20    25    23    1
    21    10     9   ar
    22     7     6    1
    23     7     8   ar
    24     4     5    1
    25     6     5    1
    26    23    22   ar
    27    23    24   ar
    28    22    21   ar
    29    24    26   ar
    30     9     8   ar
    31     9    15    1
    32    21    20   ar
    33    26    20   ar
    34    16    15    2
    35    20    18    1
    36    15    18    1
    37    15    17    2
    38    18    19    1
