@<TRIPOS>MOLECULE
ZINC20593596_replica-1.pdb
 21 22 0 0 0
SMALL
GASTEIGER

@<TRIPOS>ATOM
      1  O1         8.7100   35.1890   57.4260 O.3     0  <0>0       -0.4759
      2  C6         9.1840   35.6640   58.6070 C.ar    0  <0>0        0.1342
      3  C5         8.8010   36.9200   59.0540 C.ar    0  <0>0        0.0114
      4  C4         9.2800   37.3990   60.2590 C.ar    0  <0>0       -0.0016
      5  C3        10.1520   36.6340   61.0120 C.ar    0  <0>0       -0.0044
      6  C2        10.5390   35.3840   60.5650 C.ar    0  <0>0       -0.0189
      7  C1        11.4890   34.5520   61.3870 C.3     0  <0>0        0.0311
      8  C7        10.0590   34.8970   59.3650 C.ar    0  <0>0        0.0323
      9  C15        7.8560   37.7580   58.2320 C.3     0  <0>0        0.0253
     10  C16        7.0370   38.6600   59.1560 C.3     0  <0>0        0.0048
     11  C17        8.6580   38.6210   57.2560 C.3     0  <0>0        0.0048
     12  C8         8.0230   33.9360   57.4600 C.3     0  <0>0        0.2033
     13  C9         6.7270   34.0860   58.2580 C.3     0  <0>0        0.0260
     14  C10        5.5830   34.4530   57.3100 C.3     0  <0>0       -0.0582
     15  N1         6.1370   34.8850   56.0200 N.4     0  <0>0        0.3852
     16  C14        5.0690   35.2070   55.0640 C.3     0  <0>0       -0.0816
     17  H20        6.7570   35.7810   56.1690 H       0  <0>0       -0.0844
     18  H28        6.7550   34.0790   55.5970 H       0  <0>0       -0.0844
     19  C13        4.2310   36.3660   55.6070 C.3     0  <0>0       -0.0234
     20  C12        3.6290   35.9680   56.9580 C.3     0  <0>0       -0.0043
     21  C11        4.7600   35.5890   57.9190 C.3     0  <0>0       -0.0213
@<TRIPOS>BOND
     1    16    19    1
     2    16    15    1
     3    18    15    1
     4    19    20    1
     5    15    17    1
     6    15    14    1
     7    20    21    1
     8    11     9    1
     9    14    21    1
    10    14    13    1
    11     1    12    1
    12     1     2    1
    13    12    13    1
    14     9     3    1
    15     9    10    1
    16     2     3   ar
    17     2     8   ar
    18     3     4   ar
    19     8     6   ar
    20     4     5   ar
    21     6     5   ar
    22     6     7    1
