@<TRIPOS>MOLECULE
ZINC38899530_replica-1.pdb
 30 32 0 0 0
SMALL
GASTEIGER

@<TRIPOS>ATOM
      1  C1         0.4180   30.6120   59.4970 C.3     0  <0>0        0.0621
      2  C2         0.3050   31.4490   58.2490 C.2     0  <0>0        0.0981
      3  C3         0.5340   32.7930   58.3060 C.3     0  <0>0        0.1338
      4  C4         0.4230   33.5540   57.1290 C.2     0  <0>0        0.2347
      5  O1         0.6220   34.7580   57.1440 O.2     0  <0>0       -0.2743
      6  N1         0.0940   32.9250   55.9800 N.am    0  <0>0       -0.2541
      7  H1         0.0120   33.4300   55.1550 H       0  <0>0        0.1577
      8  C5        -0.1230   31.5810   55.9830 C.2     0  <0>0        0.2125
      9  N2        -0.0120   30.8740   57.0910 N.2     0  <0>0       -0.3889
     10  C14        0.8990   33.4530   59.6110 C.3     0  <0>0        0.1009
     11  C15        2.3880   33.6780   59.6610 C.2     0  <0>0        0.2234
     12  O2         3.1290   32.7670   59.9680 O.2     0  <0>0       -0.2751
     13  N3         2.8980   34.8900   59.3650 N.am    0  <0>0       -0.3043
     14  H16        2.3050   35.6180   59.1200 H       0  <0>0        0.1494
     15  C16        4.3450   35.1080   59.4140 C.3     0  <0>0        0.0893
     16  C17        4.7710   35.9710   58.2230 C.3     0  <0>0        0.0196
     17  C22        4.1160   35.4390   56.9470 C.3     0  <0>0        0.0017
     18  C21        4.5420   36.3010   55.7570 C.3     0  <0>0        0.0001
     19  C20        6.0640   36.2480   55.6090 C.3     0  <0>0        0.0000
     20  C19        6.7190   36.7800   56.8850 C.3     0  <0>0        0.0001
     21  C18        6.2930   35.9180   58.0750 C.3     0  <0>0        0.0017
     22  S1        -0.5540   30.7700   54.4790 S.3     0  <0>0       -0.0634
     23  C6        -0.9040   29.0640   54.9840 C.3     0  <0>0        0.0777
     24  C7        -2.2770   29.0030   55.6570 C.3     0  <0>0        0.0169
     25  C8        -0.8980   28.1690   53.7710 C.ar    0  <0>0       -0.0120
     26  C13       -1.5200   28.5780   52.6070 C.ar    0  <0>0       -0.0034
     27  C12       -1.5100   27.7580   51.4940 C.ar    0  <0>0       -0.0003
     28  C11       -0.8860   26.5260   51.5480 C.ar    0  <0>0       -0.0000
     29  C10       -0.2680   26.1160   52.7150 C.ar    0  <0>0       -0.0003
     30  C9        -0.2740   26.9360   53.8270 C.ar    0  <0>0       -0.0034
@<TRIPOS>BOND
     1    27    28   ar
     2    27    26   ar
     3    28    29   ar
     4    26    25   ar
     5    29    30   ar
     6    25    30   ar
     7    25    23    1
     8    22    23    1
     9    22     8    1
    10    23    24    1
    11     7     6    1
    12    19    18    1
    13    19    20    1
    14    18    17    1
    15     6     8    1
    16     6     4   am
    17     8     9    2
    18    20    21    1
    19    17    16    1
    20     9     2    2
    21     4     5    2
    22     4     3    1
    23    21    16    1
    24    16    15    1
    25     2     3    1
    26     2     1    1
    27     3    10    1
    28    14    13    1
    29    13    15    1
    30    13    11   am
    31    10    11    1
    32    11    12    2
