@<TRIPOS>MOLECULE
ZINC09589280_replica-1.pdb
 24 27 0 0 0
SMALL
GASTEIGER

@<TRIPOS>ATOM
      1  C7        10.8980   34.3400   62.2130 C.3     0  <0>0        0.3129
      2  O1        11.6330   35.5690   62.2130 O.3     0  <0>0       -0.3121
      3  C8        10.8240   36.7050   61.8910 C.3     0  <0>0        0.1757
      4  C9        10.0160   36.4070   60.6540 C.ar    0  <0>0        0.0417
      5  C10        9.4230   37.4430   59.9590 C.ar    0  <0>0        0.0078
      6  C11        8.6770   37.1800   58.8240 C.ar    0  <0>0        0.0342
      7  C12        8.5230   35.8780   58.3820 C.ar    0  <0>0        0.0063
      8  C13        9.1160   34.8390   59.0730 C.ar    0  <0>0        0.0234
      9  C14        9.8660   35.1020   60.2110 C.ar    0  <0>0        0.1368
     10  O2        10.4520   34.0730   60.8800 O.3     0  <0>0       -0.4497
     11 Br          7.8740   38.6020   57.8710 Br      0  <0>0       -0.0490
     12  C15        8.9490   33.4210   58.5910 C.3     0  <0>0        0.0934
     13  S1         7.2570   33.1820   57.9940 S.3     0  <0>0       -0.0817
     14  C16        7.0720   31.4550   58.2830 C.ar    0  <0>0        0.1598
     15  S2         6.7380   30.5700   59.8040 S.2     0  <0>0       -0.0372
     16  C17        6.7380   28.9350   59.0770 C.ar    0  <0>0        0.1597
     17  N2         6.9810   29.2430   57.8190 N.ar    0  <0>0       -0.1382
     18  N1         7.1350   30.4350   57.4360 N.ar    0  <0>0       -0.1343
     19  C4        11.7870   33.2190   62.6870 C.ar    0  <0>0        0.0472
     20  C3        13.1550   33.4020   62.7540 C.ar    0  <0>0        0.0018
     21  C2        13.9700   32.3730   63.1890 C.ar    0  <0>0       -0.0001
     22  C1        13.4160   31.1620   63.5570 C.ar    0  <0>0       -0.0000
     23  C6        12.0470   30.9790   63.4900 C.ar    0  <0>0       -0.0001
     24  C5        11.2330   32.0090   63.0600 C.ar    0  <0>0        0.0018
@<TRIPOS>BOND
     1    18    17   ar
     2    18    14   ar
     3    17    16   ar
     4    11     6    1
     5    13    14    1
     6    13    12    1
     7    14    15   ar
     8     7     6   ar
     9     7     8   ar
    10    12     8    1
    11     6     5   ar
    12     8     9   ar
    13    16    15   ar
    14     5     4   ar
    15     9     4   ar
    16     9    10    1
    17     4     3    1
    18    10     1    1
    19     3     2    1
    20     2     1    1
    21     1    19    1
    22    19    20   ar
    23    19    24   ar
    24    20    21   ar
    25    24    23   ar
    26    21    22   ar
    27    23    22   ar
