@<TRIPOS>MOLECULE
ZINC09454098_replica-1.pdb
 26 27 0 0 0
SMALL
GASTEIGER

@<TRIPOS>ATOM
      1  C10        7.5950   35.8300   56.6620 C.3     0  <0>0        0.2411
      2  C11        7.9220   36.3300   55.2530 C.3     0  <0>0        0.0574
      3  O3         7.8570   36.8690   57.6080 O.3     0  <0>0       -0.4700
      4  C7         8.6870   36.5690   58.6390 C.ar    0  <0>0        0.1391
      5  C6         9.3720   35.3590   58.6480 C.ar    0  <0>0        0.0371
      6  C5        10.2190   35.0530   59.6900 C.ar    0  <0>0        0.0096
      7  C4        10.3830   35.9560   60.7440 C.ar    0  <0>0        0.0758
      8  C9         9.6930   37.1730   60.7290 C.ar    0  <0>0        0.0096
      9  C8         8.8510   37.4720   59.6820 C.ar    0  <0>0        0.0371
     10  C3        11.2850   35.6310   61.8630 C.2     0  <0>0        0.3412
     11  O2        11.5650   36.4810   62.6850 O.2     0  <0>0       -0.2449
     12  O1        11.7990   34.3910   61.9750 O.3     0  <0>0       -0.4454
     13  C2        12.7610   34.1690   63.0400 C.3     0  <0>0        0.2089
     14  C1        14.0950   33.7220   62.4390 C.3     0  <0>0        0.0513
     15  C12        6.1410   35.4420   56.7320 C.2     0  <0>0        0.2626
     16  O4         5.5110   35.2620   55.7110 O.2     0  <0>0       -0.2712
     17  N1         5.5390   35.2940   57.9300 N.am    0  <0>0       -0.3031
     18  H17        6.0430   35.4370   58.7460 H       0  <0>0        0.1495
     19  C13        4.1250   34.9160   57.9980 C.3     0  <0>0        0.0716
     20  C18        3.9680   33.6930   58.9020 C.3     0  <0>0        0.0180
     21  C17        2.4920   33.2990   58.9730 C.3     0  <0>0        0.0016
     22  C19        4.4750   34.0280   60.3060 C.3     0  <0>0        0.0017
     23  C16        1.6790   34.4630   59.5440 C.3     0  <0>0        0.0001
     24  C20        2.3340   32.0740   59.8780 C.3     0  <0>0        0.0001
     25  C15        1.8370   35.6860   58.6390 C.3     0  <0>0        0.0017
     26  C14        3.3130   36.0810   58.5680 C.3     0  <0>0        0.0196
@<TRIPOS>BOND
     1     2     1    1
     2    16    15    2
     3     1    15    1
     4     1     3    1
     5    15    17   am
     6     3     4    1
     7    17    19    1
     8    17    18    1
     9    19    26    1
    10    19    20    1
    11    26    25    1
    12     4     5   ar
    13     4     9   ar
    14    25    23    1
    15     5     6   ar
    16    20    21    1
    17    20    22    1
    18    21    23    1
    19    21    24    1
    20     9     8   ar
    21     6     7   ar
    22     8     7   ar
    23     7    10    1
    24    10    12    1
    25    10    11    2
    26    12    13    1
    27    14    13    1
