@<TRIPOS>MOLECULE
ZINC20141962_replica-1.pdb
 30 32 0 0 0
SMALL
GASTEIGER

@<TRIPOS>ATOM
      1  C12        6.7540   35.7960   58.1100 C.ar    0  <0>0        0.0613
      2  C13        5.4480   35.5040   58.4700 C.ar    0  <0>0        0.0186
      3  C14        4.4170   35.6830   57.5470 C.ar    0  <0>0        0.0358
      4  C15        4.7080   36.1550   56.2650 C.ar    0  <0>0        0.0040
      5  C16        6.0120   36.4430   55.9150 C.ar    0  <0>0        0.0127
      6  C17        7.0330   36.2710   56.8320 C.ar    0  <0>0        0.0711
      7 Cl          8.6690   36.6420   56.3850 Cl      0  <0>0       -0.0810
      8  N1         7.7910   35.6190   59.0320 N.am    0  <0>0       -0.2797
      9  C11        8.4520   34.4460   59.0860 C.2     0  <0>0        0.2495
     10  O2         8.2180   33.5780   58.2680 O.2     0  <0>0       -0.2698
     11  H14        8.0340   36.3410   59.6340 H       0  <0>0        0.1552
     12  C8         9.4590   34.2150   60.1400 C.ar    0  <0>0        0.0539
     13  C7        10.3850   35.2130   60.4560 C.ar    0  <0>0        0.0076
     14  C6        11.3220   34.9930   61.4400 C.ar    0  <0>0        0.0370
     15  C5        11.3490   33.7800   62.1180 C.ar    0  <0>0        0.1384
     16  C10       10.4350   32.7830   61.8020 C.ar    0  <0>0        0.0370
     17  C9         9.4900   32.9960   60.8240 C.ar    0  <0>0        0.0076
     18  O1        12.2750   33.5670   63.0880 O.3     0  <0>0       -0.4792
     19  C3        13.4250   32.7970   62.7290 C.3     0  <0>0        0.1660
     20  C4        14.6510   33.7090   62.6720 C.3     0  <0>0        0.0472
     21  C2        13.6500   31.7020   63.7740 C.3     0  <0>0        0.0435
     22  C1        12.9040   30.4340   63.3540 C.3     0  <0>0        0.0038
     23  C18        3.0220   35.3730   57.9250 C.ar    0  <0>0        0.1450
     24  O3         2.6370   34.5490   58.9180 O.2     0  <0>0       -0.4553
     25  C21        1.2950   34.5130   58.9710 C.ar    0  <0>0        0.1524
     26  C20        0.8030   35.3110   58.0050 C.ar    0  <0>0        0.0386
     27  C19        1.9060   35.8690   57.3270 C.ar    0  <0>0        0.0403
     28  C22        0.4770   33.7080   59.9480 C.3     0  <0>0        0.2019
     29  O4        -0.1310   34.5860   60.8970 O.3     0  <0>0       -0.3748
     30  H22        0.3850   35.3830   61.0840 H       0  <0>0        0.2110
@<TRIPOS>BOND
     1     5     4   ar
     2     5     6   ar
     3     4     3   ar
     4     7     6    1
     5     6     1   ar
     6    27    23   ar
     7    27    26   ar
     8     3    23    1
     9     3     2   ar
    10    23    24   ar
    11    26    25   ar
    12     1     2   ar
    13     1     8    1
    14    10     9    2
    15    24    25   ar
    16    25    28    1
    17     8     9   am
    18     8    11    1
    19     9    12    1
    20    28    29    1
    21    12    13   ar
    22    12    17   ar
    23    13    14   ar
    24    17    16   ar
    25    29    30    1
    26    14    15   ar
    27    16    15   ar
    28    15    18    1
    29    20    19    1
    30    19    18    1
    31    19    21    1
    32    22    21    1
