@<TRIPOS>MOLECULE
ZINC37774588_replica-1.pdb
 21 22 0 0 0
SMALL
GASTEIGER

@<TRIPOS>ATOM
      1  N2        -2.0600   29.4650   55.2840 N.pl3   0  <0>0       -0.3294
      2  H12       -2.9540   29.0870   55.3210 H       0  <0>0        0.1471
      3  C5        -1.3770   29.7630   56.4720 C.ar    0  <0>0        0.0625
      4  C4        -0.5920   30.8700   56.5480 C.ar    0  <0>0        0.0927
      5  N1         0.0760   31.1690   57.6950 N.ar    0  <0>0       -0.2931
      6  C8        -0.0220   30.3720   58.7760 C.ar    0  <0>0        0.2611
      7  C7        -0.8290   29.2220   58.7350 C.ar    0  <0>0        0.0621
      8  O1         0.5880   30.6510   59.7960 O.2     0  <0>0       -0.2670
      9  C6        -1.5020   28.9170   57.5880 C.ar    0  <0>0        0.0207
     10  C3         0.9170   32.3670   57.7530 C.3     0  <0>0        0.1091
     11  C2         0.0430   33.5880   58.0490 C.3     0  <0>0        0.0246
     12  C1         0.6210   34.3500   59.2430 C.3     0  <0>0        0.0021
     13  C9        -1.4260   29.7220   53.9890 C.3     0  <0>0        0.0920
     14  C10       -2.3550   30.5810   53.1290 C.3     0  <0>0        0.0261
     15  C11       -1.1630   28.4130   53.2900 C.ar    0  <0>0       -0.0046
     16  C16       -0.4010   27.4400   53.9080 C.ar    0  <0>0       -0.0030
     17  C15       -0.1620   26.2380   53.2680 C.ar    0  <0>0       -0.0045
     18  C14       -0.6780   26.0130   52.0050 C.ar    0  <0>0       -0.0219
     19  C13       -1.4360   26.9880   51.3840 C.ar    0  <0>0       -0.0045
     20  C17       -0.4150   24.7040   51.3060 C.3     0  <0>0        0.0310
     21  C12       -1.6780   28.1880   52.0260 C.ar    0  <0>0       -0.0030
@<TRIPOS>BOND
     1    20    18    1
     2    19    18   ar
     3    19    21   ar
     4    18    17   ar
     5    21    15   ar
     6    14    13    1
     7    17    16   ar
     8    15    16   ar
     9    15    13    1
    10    13     1    1
    11     1     2    1
    12     1     3    1
    13     3     4   ar
    14     3     9   ar
    15     4     5   ar
    16     9     7   ar
    17     5    10    1
    18     5     6   ar
    19    10    11    1
    20    11    12    1
    21     7     6   ar
    22     6     8    2
