@<TRIPOS>MOLECULE
ZINC12621845_replica-1.pdb
 32 36 0 0 0
SMALL
GASTEIGER

@<TRIPOS>ATOM
      1  C17        9.1190   34.4160   58.4140 C.2     0  <0>0        0.0146
      2  C18        9.0120   34.5990   59.7800 C.2     0  <0>0        0.1042
      3  C19        7.9070   35.3320   60.3190 C.1     0  <0>0        0.1035
      4  N2         7.0310   35.9150   60.7480 N.1     0  <0>0       -0.1907
      5  C20       10.0340   34.0400   60.6800 C.2     0  <0>0        0.1706
      6  S1         9.9950   32.5150   61.6110 S.3     0  <0>0       -0.0525
      7  C26       11.5920   32.6770   62.3720 C.2     0  <0>0        0.0575
      8  C21       12.0520   33.9100   61.8510 C.2     0  <0>0        0.1375
      9  C25       12.3370   31.9190   63.2410 C.2     0  <0>0       -0.0123
     10  N3        11.2110   34.5370   61.0050 N.2     0  <0>0       -0.3942
     11  C22       13.3340   34.3290   62.2800 C.2     0  <0>0        0.0283
     12  C23       14.0600   33.5740   63.1450 C.2     0  <0>0       -0.0188
     13  C24       13.5820   32.3680   63.6400 C.3     0  <0>0        0.0527
     14  C3         8.1380   34.9530   57.5500 C.ar    0  <0>0        0.0144
     15  C2         7.1040   34.2450   56.9160 C.ar    0  <0>0       -0.0012
     16  C1         6.8360   32.7660   57.0310 C.3     0  <0>0        0.0327
     17  C9         6.3760   35.1510   56.1700 C.ar    0  <0>0        0.0992
     18  N1         6.9390   36.4070   56.3180 N.ar    0  <0>0       -0.3025
     19  C4         8.0140   36.3090   57.1540 C.ar    0  <0>0        0.0638
     20  C8         6.5930   37.6130   55.7870 C.ar    0  <0>0        0.0801
     21  C5         8.7630   37.4460   57.4710 C.ar    0  <0>0        0.0176
     22  C6         8.4090   38.6530   56.9330 C.ar    0  <0>0        0.0030
     23  C7         7.3030   38.7260   56.0780 C.ar    0  <0>0        0.0190
     24  C10        5.2410   34.8440   55.3780 C.2     0  <0>0        0.2112
     25  O1         5.3770   34.5790   54.1970 O.2     0  <0>0       -0.2850
     26  C11        3.8940   34.8430   55.9850 C.ar    0  <0>0        0.0406
     27  C16        3.1580   33.6580   56.0560 C.ar    0  <0>0        0.0055
     28  C15        1.9020   33.6640   56.6240 C.ar    0  <0>0        0.0297
     29  C14        1.3690   34.8430   57.1240 C.ar    0  <0>0        0.1401
     30  C13        2.0960   36.0210   57.0550 C.ar    0  <0>0        0.0297
     31  F1         0.1370   34.8430   57.6790 F       0  <0>0       -0.2042
     32  C12        3.3550   36.0260   56.4950 C.ar    0  <0>0        0.0055
@<TRIPOS>BOND
     1    25    24    2
     2    24    26    1
     3    24    17    1
     4    20    23   ar
     5    20    18   ar
     6    26    27   ar
     7    26    32   ar
     8    27    28   ar
     9    23    22   ar
    10    17    18   ar
    11    17    15   ar
    12    18    19   ar
    13    32    30   ar
    14    28    29   ar
    15    15    16    1
    16    15    14   ar
    17    22    21   ar
    18    30    29   ar
    19    29    31    1
    20    19    21   ar
    21    19    14   ar
    22    14     1    1
    23     1     2    2
    24     2     3    1
    25     2     5    1
    26     3     4    3
    27     5    10    2
    28     5     6    1
    29    10     8    2
    30     6     7    1
    31     8    11    1
    32     8     7    1
    33    11    12    2
    34     7     9    2
    35    12    13    1
    36     9    13    1
