@<TRIPOS>MOLECULE
ZINC39837477_replica-1.pdb
 27 29 0 0 0
SMALL
GASTEIGER

@<TRIPOS>ATOM
      1  C11        2.6270   32.7840   56.6500 C.2     0  <0>0        0.2792
      2  N1         2.1710   32.1550   57.7020 N.2     0  <0>0       -0.3564
      3  C12        1.0580   31.4620   57.3440 C.2     0  <0>0        0.2356
      4  C13        0.8500   31.7030   55.9930 C.3     0  <0>0        0.2908
      5  O1         1.8340   32.5280   55.5920 O.2     0  <0>0       -0.4319
      6  C22        0.2530   30.6410   58.1970 C.1     0  <0>0        0.1337
      7  N3        -0.3860   29.9900   58.8740 N.1     0  <0>0       -0.1883
      8  N2        -0.1690   31.1980   55.2150 N.3     0  <0>0       -0.2575
      9  H14       -0.9680   31.7250   55.0610 H       0  <0>0        0.1269
     10  C14       -0.0440   29.8660   54.6180 C.3     0  <0>0        0.0764
     11  C15       -1.2190   29.6200   53.6700 C.3     0  <0>0        0.0435
     12  C16       -1.0550   28.2770   53.0050 C.ar    0  <0>0       -0.0208
     13  C21       -1.6790   28.0220   51.7990 C.ar    0  <0>0       -0.0042
     14  C20       -1.5250   26.7920   51.1880 C.ar    0  <0>0       -0.0003
     15  C19       -0.7540   25.8130   51.7880 C.ar    0  <0>0       -0.0000
     16  C18       -0.1340   26.0670   52.9960 C.ar    0  <0>0       -0.0003
     17  C17       -0.2850   27.2980   53.6060 C.ar    0  <0>0       -0.0042
     18  C8         3.8250   33.6480   56.6280 C.ar    0  <0>0        0.0661
     19  C7         4.5540   33.8070   55.4480 C.ar    0  <0>0        0.0054
     20  C6         5.6710   34.6160   55.4340 C.ar    0  <0>0       -0.0041
     21  C5         6.0700   35.2700   56.5860 C.ar    0  <0>0       -0.0228
     22  C10        5.3560   35.1140   57.7600 C.ar    0  <0>0       -0.0041
     23  C9         4.2340   34.3110   57.7870 C.ar    0  <0>0        0.0054
     24  C2         7.2920   36.1520   56.5630 C.3     0  <0>0        0.0189
     25  C1         8.5400   35.3010   56.8030 C.3     0  <0>0        0.0044
     26  C3         7.1770   37.2110   57.6620 C.3     0  <0>0        0.0044
     27  C4         7.3980   36.8410   55.2010 C.3     0  <0>0        0.0044
@<TRIPOS>BOND
     1    14    15   ar
     2    14    13   ar
     3    15    16   ar
     4    13    12   ar
     5    16    17   ar
     6    12    17   ar
     7    12    11    1
     8    11    10    1
     9    10     8    1
    10     9     8    1
    11    27    24    1
    12     8     4    1
    13    20    19   ar
    14    20    21   ar
    15    19    18   ar
    16     5     4    1
    17     5     1    1
    18     4     3    1
    19    24    21    1
    20    24    25    1
    21    24    26    1
    22    21    22   ar
    23    18     1    1
    24    18    23   ar
    25     1     2    2
    26     3     2    2
    27     3     6    1
    28    22    23   ar
    29     6     7    3
