@<TRIPOS>MOLECULE
ZINC37009275_replica-1.pdb
 23 23 0 0 0
SMALL
GASTEIGER

@<TRIPOS>ATOM
      1  N2         0.1650   29.2890   55.8050 N.pl3   0  <0>0       -0.3270
      2  H15        0.6430   29.1210   56.6320 H       0  <0>0        0.1472
      3  C6        -0.3940   30.6170   55.5390 C.3     0  <0>0        0.1466
      4  C7        -1.8180   30.6900   56.0940 C.3     0  <0>0        0.0311
      5  C5         0.4600   31.6650   56.2060 C.2     0  <0>0        0.2402
      6  N1        -0.1220   32.6940   56.8540 N.am    0  <0>0       -0.3046
      7  H11       -1.0880   32.7610   56.8910 H       0  <0>0        0.1494
      8  O1         1.6680   31.5810   56.1600 O.2     0  <0>0       -0.2733
      9  C3         0.7090   33.7120   57.5030 C.3     0  <0>0        0.0717
     10  C4         0.4120   35.0810   56.8870 C.3     0  <0>0        0.0213
     11  C2         0.3940   33.7480   59.0000 C.3     0  <0>0        0.0196
     12  C1         1.0330   34.9900   59.6260 C.3     0  <0>0        0.0017
     13  C8         0.0130   28.2650   54.8670 C.ar    0  <0>0        0.0449
     14  C13       -0.6740   28.5010   53.6840 C.ar    0  <0>0        0.0190
     15  C12       -0.8190   27.4890   52.7560 C.ar    0  <0>0        0.0832
     16  C11       -0.2890   26.2360   53.0090 C.ar    0  <0>0        0.0616
     17  C10        0.3920   25.9960   54.1900 C.ar    0  <0>0        0.0126
     18 Cl         -0.4780   24.9640   51.8440 Cl      0  <0>0       -0.0823
     19  C9         0.5440   27.0060   55.1190 C.ar    0  <0>0        0.0152
     20  C14       -1.5580   27.7470   51.4690 C.3     0  <0>0        0.4194
     21  F1        -2.3870   26.6580   51.1800 F       0  <0>0       -0.1658
     22  F2        -2.3360   28.9030   51.6020 F       0  <0>0       -0.1658
     23  F3        -0.6390   27.9220   50.4290 F       0  <0>0       -0.1658
@<TRIPOS>BOND
     1    23    20    1
     2    21    20    1
     3    20    22    1
     4    20    15    1
     5    18    16    1
     6    15    16   ar
     7    15    14   ar
     8    16    17   ar
     9    14    13   ar
    10    17    19   ar
    11    13    19   ar
    12    13     1    1
    13     3     1    1
    14     3     4    1
    15     3     5    1
    16     1     2    1
    17     8     5    2
    18     5     6   am
    19     6     7    1
    20     6     9    1
    21    10     9    1
    22     9    11    1
    23    11    12    1
