@<TRIPOS>MOLECULE
ZINC37061797_replica-1.pdb
 22 23 0 0 0
SMALL
GASTEIGER

@<TRIPOS>ATOM
      1  N1         0.5580   28.9070   56.3880 N.pl3   0  <0>0       -0.3343
      2  H8         1.1990   28.7150   55.6850 H       0  <0>0        0.1468
      3  C7         0.5110   30.1800   56.9610 C.ar    0  <0>0        0.0407
      4  C2         0.1370   31.2750   56.1930 C.ar    0  <0>0       -0.0071
      5  C1        -0.2190   31.0910   54.7400 C.3     0  <0>0        0.0324
      6  C3         0.0850   32.5320   56.7640 C.ar    0  <0>0        0.0210
      7  C4         0.4110   32.7010   58.0960 C.ar    0  <0>0        0.1426
      8  C5         0.7900   31.6130   58.8630 C.ar    0  <0>0        0.0253
      9  C6         0.8430   30.3550   58.2990 C.ar    0  <0>0        0.0157
     10  N2         0.3560   34.0490   58.7050 N.pl3   0  <0>0        0.0577
     11  O1         0.3710   34.1700   59.9080 O.2     0  <0>0       -0.1261
     12  O2         0.2940   35.0290   57.9990 O.2     0  <0>0       -0.1261
     13  C8        -0.3600   27.8620   56.8490 C.3     0  <0>0        0.0694
     14  C9        -1.8020   28.3490   56.7010 C.3     0  <0>0        0.0212
     15  C10       -0.1600   26.6000   56.0070 C.3     0  <0>0        0.0242
     16  C11        0.7320   26.9240   54.8070 C.3     0  <0>0        0.0280
     17  C12       -0.0520   26.7350   53.5330 C.ar    0  <0>0       -0.0221
     18  C17       -0.0990   25.4940   52.9280 C.ar    0  <0>0       -0.0043
     19  C16       -0.8220   25.3200   51.7630 C.ar    0  <0>0       -0.0003
     20  C15       -1.4890   26.3910   51.1960 C.ar    0  <0>0       -0.0000
     21  C14       -1.4370   27.6340   51.7990 C.ar    0  <0>0       -0.0003
     22  C13       -0.7180   27.8060   52.9660 C.ar    0  <0>0       -0.0043
@<TRIPOS>BOND
     1    20    19   ar
     2    20    21   ar
     3    19    18   ar
     4    21    22   ar
     5    18    17   ar
     6    22    17   ar
     7    17    16    1
     8     5     4    1
     9    16    15    1
    10     2     1    1
    11    15    13    1
    12     4     6   ar
    13     4     3   ar
    14     1    13    1
    15     1     3    1
    16    14    13    1
    17     6     7   ar
    18     3     9   ar
    19    12    10    2
    20     7    10    1
    21     7     8   ar
    22     9     8   ar
    23    10    11    2
