@<TRIPOS>MOLECULE
ZINC17002631_replica-1.pdb
 25 28 0 0 0
SMALL
GASTEIGER

@<TRIPOS>ATOM
      1  C3         6.6950   34.5030   56.0260 C.3     0  <0>0        0.1728
      2  C4         6.4700   34.9110   57.4770 C.3     0  <0>0        0.0443
      3  C5         5.0990   35.5470   57.6900 C.3     0  <0>0        0.0074
      4  C6         4.0070   34.6820   57.0710 C.3     0  <0>0        0.0151
      5  C7         2.8300   34.4800   58.0160 C.3     0  <0>0        0.0038
      6  C8         2.4570   35.7410   58.7810 C.3     0  <0>0        0.0007
      7  C9         1.1380   35.5500   59.5460 C.3     0  <0>0        0.0073
      8  C10        0.9140   34.0980   59.8790 C.3     0  <0>0        0.0555
      9  C11        2.2460   33.3800   60.1740 C.3     0  <0>0        0.0116
     10  C12        3.1770   33.3590   59.0070 C.3     0  <0>0        0.0053
     11  C13        3.1970   32.0500   58.2170 C.3     0  <0>0        0.0254
     12  C14        4.2490   32.2080   57.1460 C.2     0  <0>0       -0.0345
     13  C15        4.6050   33.3580   56.6620 C.2     0  <0>0       -0.0455
     14  C16        5.7090   33.4030   55.6180 C.3     0  <0>0        0.0653
     15  C17        1.7250   32.0340   60.7040 C.3     0  <0>0        0.0297
     16  C18        0.5580   32.4760   61.5910 C.2     0  <0>0        0.0125
     17  C19       -0.0070   31.7560   62.5620 C.2     0  <0>0       -0.0017
     18  C20        0.1710   33.8420   61.1800 C.2     0  <0>0        0.1683
     19  O3        -0.5890   34.6000   61.7290 O.2     0  <0>0       -0.2917
     20  C21        0.1020   33.4080   58.7790 C.3     0  <0>0        0.0077
     21  C22        3.4780   35.3820   55.8130 C.3     0  <0>0        0.0040
     22  O2         6.5380   35.6550   55.1580 O.3     0  <0>0       -0.4519
     23  C2         7.4590   36.6260   55.2630 C.2     0  <0>0        0.3174
     24  C1         7.0280   38.0500   55.5040 C.3     0  <0>0        0.1212
     25  O1         8.6330   36.3590   55.1650 O.2     0  <0>0       -0.2501
@<TRIPOS>BOND
     1    22    23    1
     2    22     1    1
     3    25    23    2
     4    23    24    1
     5    14     1    1
     6    14    13    1
     7    21     4    1
     8     1     2    1
     9    13     4    1
    10    13    12    2
    11     4     3    1
    12     4     5    1
    13    12    11    1
    14     2     3    1
    15     5     6    1
    16     5    10    1
    17    11    10    1
    18    20     8    1
    19     6     7    1
    20    10     9    1
    21     7     8    1
    22     8     9    1
    23     8    18    1
    24     9    15    1
    25    15    16    1
    26    18    16    1
    27    18    19    2
    28    16    17    2
