@<TRIPOS>MOLECULE
ZINC20340912_replica-1.pdb
 22 23 0 0 0
SMALL
GASTEIGER

@<TRIPOS>ATOM
      1  C6        11.4070   35.0470   61.7060 C.ar    0  <0>0       -0.0226
      2  C7        10.9250   36.2900   62.0730 C.ar    0  <0>0       -0.0012
      3  C8        10.0190   36.9460   61.2630 C.ar    0  <0>0        0.0366
      4  C9         9.5940   36.3580   60.0810 C.ar    0  <0>0        0.1389
      5  C10       10.0750   35.1080   59.7180 C.ar    0  <0>0        0.0366
      6  C11       10.9860   34.4580   60.5280 C.ar    0  <0>0       -0.0012
      7  O1         8.7020   37.0020   59.2820 O.3     0  <0>0       -0.4724
      8  C12        7.3390   36.5820   59.3610 C.3     0  <0>0        0.2141
      9  C13        6.5190   37.6470   60.0920 C.3     0  <0>0        0.0548
     10  C14        6.7900   36.3930   57.9700 C.2     0  <0>0        0.1398
     11  N1         7.5470   36.6120   56.9110 N.2     0  <0>0       -0.3855
     12  C16        7.0750   36.4500   55.6890 C.2     0  <0>0        0.2040
     13  S1         5.4420   35.9420   55.9940 S.3     0  <0>0       -0.0601
     14  C15        5.5100   35.9960   57.7780 C.3     0  <0>0        0.1238
     15  N2         7.7190   36.6300   54.4750 N.pl3   0  <0>0       -0.3280
     16  H21        7.9260   35.7650   53.8290 H       0  <0>0        0.1452
     17  H22        8.0230   37.6390   54.1590 H       0  <0>0        0.1452
     18  C3        12.3960   34.3320   62.5910 C.3     0  <0>0        0.0189
     19  C4        13.7300   34.1920   61.8570 C.3     0  <0>0        0.0044
     20  C5        12.6040   35.1370   63.8770 C.3     0  <0>0        0.0044
     21  C2        11.8570   32.9440   62.9410 C.3     0  <0>0        0.0040
     22  C1        13.0240   31.9650   63.0860 C.3     0  <0>0        0.0003
@<TRIPOS>BOND
     1    16    15    1
     2    17    15    1
     3    15    12    1
     4    12    13    1
     5    12    11    2
     6    13    14    1
     7    11    10    2
     8    14    10    1
     9    10     8    1
    10     7     8    1
    11     7     4    1
    12     8     9    1
    13     5     4   ar
    14     5     6   ar
    15     4     3   ar
    16     6     1   ar
    17     3     2   ar
    18     1     2   ar
    19     1    18    1
    20    19    18    1
    21    18    21    1
    22    18    20    1
    23    21    22    1
