@<TRIPOS>MOLECULE
ZINC44827325_replica-1.pdb
 19 18 0 0 0
SMALL
GASTEIGER

@<TRIPOS>ATOM
      1  C4         5.0060   34.5350   56.7190 C.3     0  <0>0        0.1476
      2  C8         4.6600   34.5110   55.2880 C.1     0  <0>0        0.0799
      3  N1         4.3940   34.4930   54.1850 N.1     0  <0>0       -0.1954
      4  C3         3.7290   34.4190   57.5530 C.3     0  <0>0        0.0229
      5  C2         2.8310   35.6290   57.2830 C.3     0  <0>0        0.0015
      6  C1         2.1250   36.0410   58.5770 C.3     0  <0>0        0.0000
      7  C5         5.9310   33.3610   57.0400 C.3     0  <0>0        0.0229
      8  C6         7.0870   33.3320   56.0370 C.3     0  <0>0        0.0015
      9  C7         8.2700   32.5750   56.6420 C.3     0  <0>0        0.0000
     10  C9         5.7030   35.8290   57.0460 C.2     0  <0>0        0.2380
     11  O1         5.8440   36.6760   56.1900 O.2     0  <0>0       -0.2738
     12  N2         6.1720   36.0470   58.2910 N.am    0  <0>0       -0.2786
     13  C10        6.1020   34.9830   59.2960 C.3     0  <0>0        0.1148
     14  C11        6.7520   37.3460   58.6390 C.3     0  <0>0        0.0754
     15  C12        6.4150   37.6820   60.0940 C.3     0  <0>0        0.0215
     16  C13        8.2710   37.2890   58.4670 C.3     0  <0>0        0.0167
     17  C14        8.6860   38.1860   57.2990 C.3     0  <0>0        0.0016
     18  C15        8.9480   37.7770   59.7500 C.3     0  <0>0        0.0016
     19  C16        8.6990   35.8490   58.1810 C.3     0  <0>0        0.0016
@<TRIPOS>BOND
     1     3     2    3
     2     2     1    1
     3     8     9    1
     4     8     7    1
     5    11    10    2
     6     1     7    1
     7     1    10    1
     8     1     4    1
     9    10    12   am
    10     5     4    1
    11     5     6    1
    12    17    16    1
    13    19    16    1
    14    12    14    1
    15    12    13    1
    16    16    14    1
    17    16    18    1
    18    14    15    1
