@<TRIPOS>MOLECULE
ZINC38118084_replica-1.pdb
 22 23 0 0 0
SMALL
GASTEIGER

@<TRIPOS>ATOM
      1  C10       10.9460   35.4640   61.9310 C.3     0  <0>0        0.1216
      2  C7        10.1940   35.8960   60.6990 C.ar    0  <0>0       -0.0022
      3  C6         9.6190   37.1510   60.6440 C.ar    0  <0>0       -0.0029
      4  C5         8.9290   37.5470   59.5130 C.ar    0  <0>0       -0.0045
      5  C4         8.8160   36.6880   58.4370 C.ar    0  <0>0       -0.0225
      6  C9         9.3860   35.4300   58.4940 C.ar    0  <0>0       -0.0045
      7  C8        10.0790   35.0350   59.6240 C.ar    0  <0>0       -0.0029
      8  C2         8.0640   37.1190   57.2040 C.3     0  <0>0        0.0224
      9  C1         8.4360   38.5630   56.8580 C.3     0  <0>0        0.0047
     10  C3         8.4330   36.2030   56.0350 C.3     0  <0>0        0.0047
     11  C11       11.6130   36.6820   62.5750 C.3     0  <0>0        0.1610
     12  O1        11.9360   36.3850   63.9340 O.3     0  <0>0       -0.3799
     13  H15       12.8850   36.3680   64.1180 H       0  <0>0        0.2105
     14  N1        11.9710   34.4850   61.5600 N.pl3   0  <0>0       -0.3287
     15  H16       12.5490   34.6540   60.7990 H       0  <0>0        0.1471
     16  C12       12.1160   33.3100   62.3010 C.ar    0  <0>0        0.0449
     17  C17       11.0090   32.5120   62.5620 C.ar    0  <0>0        0.0148
     18  C16       11.1570   31.3470   63.2900 C.ar    0  <0>0        0.0080
     19  C15       12.4020   30.9830   63.7700 C.ar    0  <0>0        0.0346
     20  C14       13.5050   31.7800   63.5160 C.ar    0  <0>0        0.0080
     21 Br         12.5990   29.3910   64.7720 Br      0  <0>0       -0.0490
     22  C13       13.3650   32.9410   62.7840 C.ar    0  <0>0        0.0148
@<TRIPOS>BOND
     1    10     8    1
     2     9     8    1
     3     8     5    1
     4     5     6   ar
     5     5     4   ar
     6     6     7   ar
     7     4     3   ar
     8     7     2   ar
     9     3     2   ar
    10     2     1    1
    11    15    14    1
    12    14     1    1
    13    14    16    1
    14     1    11    1
    15    16    17   ar
    16    16    22   ar
    17    17    18   ar
    18    11    12    1
    19    22    20   ar
    20    18    19   ar
    21    20    19   ar
    22    19    21    1
    23    12    13    1
