@<TRIPOS>MOLECULE
ZINC38680124_replica-1.pdb
 33 36 0 0 0
SMALL
GASTEIGER

@<TRIPOS>ATOM
      1  C9         5.6610   36.5480   60.1300 C.ar    0  <0>0        0.1518
      2  C10        5.7030   35.3210   60.7770 C.ar    0  <0>0        0.0375
      3  C11        4.8250   34.3190   60.4150 C.ar    0  <0>0        0.0025
      4  C12        3.9010   34.5320   59.4070 C.ar    0  <0>0        0.0214
      5  C13        3.8540   35.7550   58.7580 C.ar    0  <0>0        0.1465
      6  C14        4.7330   36.7660   59.1250 C.ar    0  <0>0        0.0748
      7  O3         2.9550   35.9830   57.7690 O.3     0  <0>0       -0.4402
      8  C15        2.3710   34.9490   57.1430 C.2     0  <0>0        0.1989
      9  C16        2.3360   33.7090   57.6870 C.2     0  <0>0        0.1027
     10  C17        2.9520   33.4260   59.0270 C.3     0  <0>0        0.0868
     11  C24        1.6970   32.6460   56.9690 C.1     0  <0>0        0.1011
     12  N1         1.1920   31.8040   56.4010 N.1     0  <0>0       -0.1910
     13  N2         1.7910   35.1540   55.9150 N.pl3   0  <0>0       -0.3284
     14  H15        1.1170   35.8430   55.8060 H       0  <0>0        0.1451
     15  H16        2.0560   34.6110   55.1570 H       0  <0>0        0.1451
     16  C18        1.8640   33.3230   60.0650 C.ar    0  <0>0        0.0246
     17  C23        1.7430   32.1780   60.8290 C.ar    0  <0>0        0.0565
     18  C22        0.7470   32.0870   61.7860 C.ar    0  <0>0        0.0112
     19 Cl          2.8450   30.8570   60.5940 Cl      0  <0>0       -0.0825
     20  C21       -0.1340   33.1350   61.9700 C.ar    0  <0>0        0.0032
     21  C20       -0.0180   34.2790   61.2040 C.ar    0  <0>0        0.0294
     22  C19        0.9810   34.3750   60.2500 C.ar    0  <0>0        0.1376
     23  F1         1.0960   35.4930   59.5000 F       0  <0>0       -0.2045
     24  O2         6.5240   37.5360   60.4870 O.3     0  <0>0       -0.4209
     25  C8         7.6640   37.6630   59.7800 C.2     0  <0>0        0.3457
     26  O1         7.7670   38.5360   58.9430 O.2     0  <0>0       -0.2445
     27  C6         8.7910   36.7380   60.0250 C.ar    0  <0>0        0.0757
     28  C5         9.0500   35.6970   59.1320 C.ar    0  <0>0        0.0064
     29  C4        10.1040   34.8370   59.3660 C.ar    0  <0>0       -0.0001
     30  C3        10.9030   35.0070   60.4830 C.ar    0  <0>0       -0.0043
     31  C2        10.6510   36.0380   61.3730 C.ar    0  <0>0       -0.0216
     32  C1        11.5270   36.2130   62.5870 C.3     0  <0>0        0.0310
     33  C7         9.5970   36.9000   61.1540 C.ar    0  <0>0        0.0022
@<TRIPOS>BOND
     1    15    13    1
     2    14    13    1
     3    13     8    1
     4    12    11    3
     5    11     9    1
     6     8     9    2
     7     8     7    1
     8     9    10    1
     9     7     5    1
    10     5     6   ar
    11     5     4   ar
    12    26    25    2
    13    10     4    1
    14    10    16    1
    15     6     1   ar
    16    28    29   ar
    17    28    27   ar
    18    29    30   ar
    19     4     3   ar
    20    23    22    1
    21    25    27    1
    22    25    24    1
    23    27    33   ar
    24    16    22   ar
    25    16    17   ar
    26     1    24    1
    27     1     2   ar
    28    22    21   ar
    29     3     2   ar
    30    30    31   ar
    31    19    17    1
    32    17    18   ar
    33    33    31   ar
    34    21    20   ar
    35    31    32    1
    36    18    20   ar
