@<TRIPOS>MOLECULE
ZINC00327441_replica-1.pdb
 27 29 0 0 0
SMALL
GASTEIGER

@<TRIPOS>ATOM
      1  C8        -1.1820   30.0320   55.1470 C.3     0  <0>0        0.0551
      2  C7         0.3310   30.2470   55.0790 C.3     0  <0>0        0.0938
      3  C6         0.6820   31.5550   55.7420 C.2     0  <0>0        0.2231
      4  N1         1.9690   31.9470   55.8200 N.am    0  <0>0       -0.3059
      5  H14        2.6700   31.3870   55.4490 H       0  <0>0        0.1494
      6  O1        -0.1930   32.2540   56.2060 O.2     0  <0>0       -0.2751
      7  C2         2.3110   33.2170   56.4640 C.3     0  <0>0        0.0716
      8  C1         2.9340   32.9420   57.8350 C.3     0  <0>0        0.0213
      9  C3         3.3120   33.9790   55.5920 C.3     0  <0>0        0.0180
     10  C4         3.2860   35.4630   55.9650 C.3     0  <0>0        0.0017
     11  C5         4.7160   33.4190   55.8210 C.3     0  <0>0        0.0017
     12  C9        -1.4940   28.9710   56.1690 C.ar    0  <0>0       -0.0179
     13  C14       -0.4670   28.2670   56.7700 C.ar    0  <0>0       -0.0039
     14  C13       -0.7530   27.2950   57.7110 C.ar    0  <0>0       -0.0003
     15  C12       -2.0660   27.0210   58.0440 C.ar    0  <0>0       -0.0000
     16  C11       -3.0940   27.7200   57.4390 C.ar    0  <0>0       -0.0003
     17  C10       -2.8080   28.6950   56.5010 C.ar    0  <0>0       -0.0039
     18  C15       -1.6870   29.5930   53.7960 C.ar    0  <0>0        0.0004
     19  C18       -1.3240   28.3650   53.0870 C.ar    0  <0>0        0.0134
     20  C17       -2.0420   28.3860   51.8770 C.ar    0  <0>0        0.0563
     21  C19       -0.4800   27.2900   53.3760 C.ar    0  <0>0        0.0012
     22  N2        -2.7750   29.5510   51.8620 N.ar    0  <0>0       -0.3522
     23  C22       -1.9020   27.3310   50.9830 C.ar    0  <0>0        0.0170
     24  C16       -2.5510   30.2570   53.0120 C.ar    0  <0>0        0.0684
     25  H3        -3.3640   29.8310   51.1420 H       0  <0>0        0.1660
     26  C21       -1.0580   26.2850   51.2840 C.ar    0  <0>0        0.0015
     27  C20       -0.3540   26.2660   52.4810 C.ar    0  <0>0        0.0001
@<TRIPOS>BOND
     1    23    26   ar
     2    23    20   ar
     3    25    22    1
     4    26    27   ar
     5    22    20   ar
     6    22    24   ar
     7    20    19   ar
     8    27    21   ar
     9    24    18   ar
    10    19    21   ar
    11    19    18   ar
    12    18     1    1
    13     2     1    1
    14     2     3    1
    15     1    12    1
    16     5     4    1
    17     9    11    1
    18     9    10    1
    19     9     7    1
    20     3     4   am
    21     3     6    2
    22     4     7    1
    23    12    17   ar
    24    12    13   ar
    25     7     8    1
    26    17    16   ar
    27    13    14   ar
    28    16    15   ar
    29    14    15   ar
