@<TRIPOS>MOLECULE
ZINC40360770_replica-1.pdb
 21 21 0 0 0
SMALL
GASTEIGER

@<TRIPOS>ATOM
      1  C5         9.9020   34.1600   61.2280 C.3     0  <0>0        0.1639
      2  C6         9.1340   33.1600   60.4670 C.1     0  <0>0        0.0923
      3  N2         8.5420   32.3890   59.8800 N.1     0  <0>0       -0.1942
      4  N1        10.0250   35.3870   60.4360 N.am    0  <0>0       -0.2938
      5  C4         9.0680   36.3340   60.5080 C.2     0  <0>0        0.2231
      6  O1         8.1070   36.1710   61.2280 O.2     0  <0>0       -0.2751
      7  H8        10.7950   35.5180   59.8610 H       0  <0>0        0.1503
      8  C3         9.1950   37.5960   59.6940 C.3     0  <0>0        0.0851
      9  C2         7.9970   37.7160   58.7500 C.3     0  <0>0        0.0091
     10  C1         7.3360   39.0830   58.9360 C.3     0  <0>0        0.0005
     11  C13        8.4720   37.5720   57.3040 C.3     0  <0>0        0.0005
     12  C14        7.8280   36.3350   56.6750 C.3     0  <0>0        0.0000
     13  C15        8.6610   35.0970   57.0150 C.3     0  <0>0        0.0000
     14  C16        6.4100   36.1610   57.2240 C.3     0  <0>0        0.0000
     15  C17        7.7680   36.5070   55.1550 C.3     0  <0>0        0.0000
     16  C7        11.2960   33.6080   61.5320 C.3     0  <0>0        0.0327
     17  C12       12.2030   34.7470   62.0020 C.3     0  <0>0        0.0027
     18  C11       13.5980   34.1950   62.3070 C.3     0  <0>0        0.0001
     19  C10       13.4980   33.1340   63.4050 C.3     0  <0>0        0.0000
     20  C9        12.5900   31.9960   62.9340 C.3     0  <0>0        0.0001
     21  C8        11.1970   32.5470   62.6300 C.3     0  <0>0        0.0027
@<TRIPOS>BOND
     1    15    12    1
     2    12    13    1
     3    12    14    1
     4    12    11    1
     5    11     9    1
     6     9    10    1
     7     9     8    1
     8     8     5    1
     9     7     4    1
    10     3     2    3
    11     4     5   am
    12     4     1    1
    13     2     1    1
    14     5     6    2
    15     1    16    1
    16    16    17    1
    17    16    21    1
    18    17    18    1
    19    18    19    1
    20    21    20    1
    21    20    19    1
