@<TRIPOS>MOLECULE
ZINC08497528_replica-1.pdb
 26 27 0 0 0
SMALL
GASTEIGER

@<TRIPOS>ATOM
      1  N1         8.7220   36.6630   58.0100 N.am    0  <0>0       -0.3005
      2  C4         8.6720   36.8380   59.3450 C.2     0  <0>0        0.2459
      3  O1         7.8010   37.5300   59.8350 O.2     0  <0>0       -0.2701
      4  H7         9.4170   36.1100   57.6190 H       0  <0>0        0.1497
      5  C3         7.7280   37.3080   57.1480 C.3     0  <0>0        0.0940
      6  C2         7.0470   36.2510   56.2760 C.3     0  <0>0        0.0419
      7  C1         7.1410   36.6650   54.8070 C.3     0  <0>0        0.0064
      8  C15        5.5980   36.1310   56.6730 C.ar    0  <0>0       -0.0207
      9  C20        4.6100   36.2000   55.7100 C.ar    0  <0>0       -0.0025
     10  C19        3.2810   36.0900   56.0740 C.ar    0  <0>0        0.0237
     11  C18        2.9410   35.9100   57.4020 C.ar    0  <0>0        0.1429
     12  C17        3.9300   35.8400   58.3650 C.ar    0  <0>0        0.0237
     13  C16        5.2580   35.9460   58.0010 C.ar    0  <0>0       -0.0025
     14  N2         1.5180   35.7920   57.7930 N.pl3   0  <0>0        0.0577
     15  O2         0.6430   35.9390   56.9580 O.2     0  <0>0       -0.1261
     16  O3         1.2210   35.5490   58.9490 O.2     0  <0>0       -0.1261
     17  C5         9.6750   36.1870   60.2140 C.ar    0  <0>0        0.0533
     18  C10       10.1230   34.8970   59.9240 C.ar    0  <0>0        0.0042
     19  C9        11.0600   34.2950   60.7390 C.ar    0  <0>0       -0.0041
     20  C8        11.5550   34.9680   61.8410 C.ar    0  <0>0       -0.0228
     21  C7        11.1160   36.2460   62.1350 C.ar    0  <0>0       -0.0041
     22  C6        10.1800   36.8590   61.3290 C.ar    0  <0>0        0.0042
     23  C11       12.5790   34.3040   62.7260 C.3     0  <0>0        0.0189
     24  C12       12.0770   32.9160   63.1350 C.3     0  <0>0        0.0044
     25  C13       13.8990   34.1670   61.9670 C.3     0  <0>0        0.0044
     26  C14       12.7980   35.1550   63.9800 C.3     0  <0>0        0.0044
@<TRIPOS>BOND
     1     7     6    1
     2     9    10   ar
     3     9     8   ar
     4    10    11   ar
     5     6     8    1
     6     6     5    1
     7     8    13   ar
     8    15    14    2
     9     5     1    1
    10    11    14    1
    11    11    12   ar
    12     4     1    1
    13    14    16    2
    14    13    12   ar
    15     1     2   am
    16     2     3    2
    17     2    17    1
    18    18    17   ar
    19    18    19   ar
    20    17    22   ar
    21    19    20   ar
    22    22    21   ar
    23    20    21   ar
    24    20    23    1
    25    25    23    1
    26    23    24    1
    27    23    26    1
