@<TRIPOS>MOLECULE
ZINC40066290_replica-1.pdb
 32 36 0 0 0
SMALL
GASTEIGER

@<TRIPOS>ATOM
      1  C1        -3.0940   28.2120   56.6620 C.3     0  <0>0        0.0308
      2  C2        -2.0110   28.9590   57.3970 C.ar    0  <0>0       -0.0229
      3  C3        -1.4630   28.4120   58.5500 C.ar    0  <0>0       -0.0043
      4  C4        -0.4810   29.0790   59.2290 C.ar    0  <0>0        0.0059
      5  C5        -0.0320   30.3130   58.7590 C.ar    0  <0>0        0.0730
      6  C6         1.0230   31.0580   59.4910 C.ar    0  <0>0        0.1995
      7  O1         1.6620   30.5780   60.4100 O.2     0  <0>0       -0.2866
      8  C7         1.2240   32.4250   59.0010 C.ar    0  <0>0        0.0780
      9  C8         0.6300   32.8550   57.8480 C.ar    0  <0>0        0.1994
     10  O2        -0.1570   32.0610   57.0970 O.2     0  <0>0       -0.4493
     11  C9        -0.5750   30.8730   57.5910 C.ar    0  <0>0        0.1442
     12  C10       -1.5730   30.1710   56.9150 C.ar    0  <0>0        0.0089
     13  C11       -2.1780   30.7450   55.6590 C.3     0  <0>0        0.0339
     14  C12        1.0120   34.2610   57.6280 C.2     0  <0>0        0.2843
     15  O3         0.6480   34.9410   56.6890 O.2     0  <0>0       -0.2665
     16  N1         1.8240   34.6820   58.6200 N.am    0  <0>0       -0.2633
     17  C13        2.0190   33.5620   59.5540 C.3     0  <0>0        0.1273
     18  C14        3.4790   33.1900   59.6230 C.ar    0  <0>0        0.0002
     19  C19        4.1910   33.4040   60.7880 C.ar    0  <0>0       -0.0018
     20  C18        5.5260   33.0600   60.8570 C.ar    0  <0>0        0.0059
     21  C17        6.1570   32.5080   59.7480 C.ar    0  <0>0        0.0252
     22  C16        5.4400   32.2990   58.5770 C.ar    0  <0>0        0.0059
     23  C15        4.1030   32.6420   58.5180 C.ar    0  <0>0       -0.0018
     24  S1         7.8620   32.0720   59.8290 S.3     0  <0>0       -0.1127
     25  C20        8.0360   30.7470   58.6010 C.3     0  <0>0        0.0742
     26  C21        2.4100   36.0190   58.7430 C.3     0  <0>0        0.1211
     27  C22        3.7800   36.0260   58.1160 C.ar    0  <0>0       -0.0023
     28  C27        4.8970   36.2510   58.8980 C.ar    0  <0>0       -0.0026
     29  C26        6.1540   36.2530   58.3220 C.ar    0  <0>0       -0.0003
     30  C25        6.2940   36.0390   56.9630 C.ar    0  <0>0       -0.0000
     31  C24        5.1750   35.8190   56.1810 C.ar    0  <0>0       -0.0003
     32  C23        3.9190   35.8120   56.7560 C.ar    0  <0>0       -0.0026
@<TRIPOS>BOND
     1    13    12    1
     2    31    32   ar
     3    31    30   ar
     4     1     2    1
     5    15    14    2
     6    32    27   ar
     7    12     2   ar
     8    12    11   ar
     9    30    29   ar
    10    10    11   ar
    11    10     9   ar
    12     2     3   ar
    13    11     5   ar
    14    14     9    1
    15    14    16   am
    16     9     8   ar
    17    27    26    1
    18    27    28   ar
    19    29    28   ar
    20    23    22   ar
    21    23    18   ar
    22     3     4   ar
    23    22    21   ar
    24    25    24    1
    25    16    26    1
    26    16    17    1
    27     5     4   ar
    28     5     6   ar
    29     8     6   ar
    30     8    17    1
    31     6     7    2
    32    17    18    1
    33    18    19   ar
    34    21    24    1
    35    21    20   ar
    36    19    20   ar
