@<TRIPOS>MOLECULE
ZINC04731296_replica-1.pdb
 29 32 0 0 0
SMALL
GASTEIGER

@<TRIPOS>ATOM
      1  C1         4.8520   32.9210   56.2210 C.3     0  <0>0        0.0028
      2  C2         3.4730   33.5350   55.9720 C.3     0  <0>0        0.0314
      3  C3         3.6170   34.8730   55.2130 C.3     0  <0>0        0.0029
      4  C4         3.6130   35.9450   56.3440 C.3     0  <0>0        0.0030
      5  C5         5.0080   35.9150   56.9740 C.3     0  <0>0        0.0047
      6  C6         5.9530   36.7000   56.0510 C.3     0  <0>0        0.0254
      7  C7         7.2940   36.8560   56.7000 C.2     0  <0>0       -0.0345
      8  C8         7.4930   36.7470   57.9740 C.2     0  <0>0       -0.0455
      9  C9         8.9060   36.8590   58.5280 C.3     0  <0>0        0.0653
     10  C10        8.9670   35.9680   59.7760 C.3     0  <0>0        0.1728
     11  C11        8.0980   34.7300   59.5600 C.3     0  <0>0        0.0443
     12  C12        6.6130   35.0900   59.5810 C.3     0  <0>0        0.0074
     13  C13        6.4010   36.4740   58.9710 C.3     0  <0>0        0.0151
     14  C14        5.0130   36.5840   58.3480 C.3     0  <0>0        0.0038
     15  C15        4.0200   35.8570   59.2640 C.3     0  <0>0        0.0004
     16  C16        2.6170   35.9960   58.6790 C.3     0  <0>0        0.0027
     17  C17        2.5480   35.3810   57.3000 C.3     0  <0>0        0.0289
     18  C18        2.7910   33.8660   57.3150 C.3     0  <0>0        0.1387
     19  C21        1.1700   35.6580   56.6970 C.3     0  <0>0        0.0028
     20  C22        6.5140   37.5140   60.0880 C.3     0  <0>0        0.0040
     21  C19        1.4800   33.1310   57.4280 C.2     0  <0>0        0.1749
     22  O1         0.9500   32.6870   56.4390 O.2     0  <0>0       -0.2936
     23  C20        0.8320   32.9490   58.7760 C.3     0  <0>0        0.0748
     24  O2         3.6490   33.5160   58.4030 O.3     0  <0>0       -0.3798
     25  H27        3.2560   32.8900   59.0280 H       0  <0>0        0.2108
     26  O3        10.3400   35.5600   60.0110 O.3     0  <0>0       -0.4519
     27  C23       10.7910   35.6360   61.2720 C.2     0  <0>0        0.3174
     28  O4        10.4940   36.5820   61.9640 O.2     0  <0>0       -0.2501
     29  C24       11.6690   34.5440   61.8270 C.3     0  <0>0        0.1212
@<TRIPOS>BOND
     1     3     2    1
     2     3     4    1
     3     2     1    1
     4     2    18    1
     5     6     7    1
     6     6     5    1
     7     4     5    1
     8     4    17    1
     9    22    21    2
    10    19    17    1
    11     7     8    2
    12     5    14    1
    13    17    18    1
    14    17    16    1
    15    18    21    1
    16    18    24    1
    17    21    23    1
    18     8     9    1
    19     8    13    1
    20    14    13    1
    21    14    15    1
    22    24    25    1
    23     9    10    1
    24    16    15    1
    25    13    12    1
    26    13    20    1
    27    11    12    1
    28    11    10    1
    29    10    26    1
    30    26    27    1
    31    27    29    1
    32    27    28    2
