@<TRIPOS>MOLECULE
ZINC43976808_replica-1.pdb
 21 22 0 0 0
SMALL
GASTEIGER

@<TRIPOS>ATOM
      1  C4         8.9770   34.2130   60.2140 C.3     0  <0>0        0.0350
      2  C5        10.0890   33.6990   61.1310 C.3     0  <0>0        0.0136
      3  C6        11.2760   34.6640   61.0840 C.3     0  <0>0        0.0012
      4  C7        10.8260   36.0490   61.5540 C.3     0  <0>0       -0.0020
      5  C8         9.7150   36.5630   60.6360 C.3     0  <0>0       -0.0195
      6  C9         8.5280   35.5980   60.6840 C.3     0  <0>0       -0.0433
      7  N2         7.4600   36.0910   59.8030 N.4     0  <0>0        0.3890
      8  C10        6.6670   37.1030   60.5150 C.3     0  <0>0       -0.1004
      9  H35        6.8630   35.3230   59.5360 H       0  <0>0       -0.0796
     10  C11        8.0540   36.6910   58.6010 C.3     0  <0>0       -0.0579
     11  C16        7.6460   35.8790   57.3710 C.3     0  <0>0       -0.0189
     12  C15        8.2650   36.5030   56.1190 C.3     0  <0>0       -0.0020
     13  C17        6.1210   35.8810   57.2420 C.3     0  <0>0       -0.0021
     14  C14        7.7670   37.9420   55.9680 C.3     0  <0>0       -0.0001
     15  C13        8.1750   38.7540   57.1990 C.3     0  <0>0       -0.0021
     16  C12        7.5570   38.1300   58.4500 C.3     0  <0>0       -0.0208
     17  N1         7.8380   33.2870   60.2590 N.3     0  <0>0       -0.3003
     18  H12        6.9930   33.7380   59.9400 H       0  <0>0        0.1231
     19  C3         8.1140   32.0740   59.4770 C.3     0  <0>0        0.0685
     20  C2         8.5230   32.4660   58.0560 C.3     0  <0>0        0.0171
     21  C1         7.4290   32.0410   57.0750 C.3     0  <0>0        0.0015
@<TRIPOS>BOND
     1    14    12    1
     2    14    15    1
     3    12    11    1
     4    21    20    1
     5    15    16    1
     6    13    11    1
     7    11    10    1
     8    20    19    1
     9    16    10    1
    10    10     7    1
    11    19    17    1
    12     9     7    1
    13     7     8    1
    14     7     6    1
    15    18    17    1
    16     1    17    1
    17     1     6    1
    18     1     2    1
    19     5     6    1
    20     5     4    1
    21     3     2    1
    22     3     4    1
