@<TRIPOS>MOLECULE
ZINC57693979_replica-1.pdb
 22 23 0 0 0
SMALL
GASTEIGER

@<TRIPOS>ATOM
      1  C10        0.5110   30.9490   57.0650 C.3     0  <0>0        0.1173
      2  C11       -0.2830   30.1150   57.9810 C.1     0  <0>0        0.0767
      3  N1        -0.8960   29.4720   58.6890 N.1     0  <0>0       -0.1956
      4  C9        -0.1730   30.9980   55.6970 C.3     0  <0>0        0.0669
      5  C8         0.2830   29.8040   54.8560 C.3     0  <0>0        0.2068
      6  O1        -0.7650   28.8350   54.7980 O.3     0  <0>0       -0.4761
      7  C7        -0.9430   28.1890   53.6150 C.ar    0  <0>0        0.1305
      8  C2        -1.7440   28.7510   52.6310 C.ar    0  <0>0        0.0118
      9  C1        -2.4150   30.0790   52.8710 C.3     0  <0>0        0.0342
     10  C3        -1.9190   28.0950   51.4280 C.ar    0  <0>0       -0.0013
     11  C4        -1.3040   26.8770   51.2070 C.ar    0  <0>0       -0.0004
     12  C5        -0.5100   26.3130   52.1880 C.ar    0  <0>0       -0.0013
     13  C6        -0.3310   26.9640   53.3930 C.ar    0  <0>0        0.0118
     14  C19        0.5330   26.3480   54.4630 C.3     0  <0>0        0.0342
     15  C12        0.6190   32.3450   57.6230 C.ar    0  <0>0       -0.0053
     16  C17        0.7000   32.5380   58.9880 C.ar    0  <0>0        0.0336
     17  C16        0.8050   33.8230   59.5000 C.ar    0  <0>0        0.1385
     18  C15        0.8170   34.9120   58.6410 C.ar    0  <0>0        0.0369
     19  C14        0.7300   34.7140   57.2760 C.ar    0  <0>0        0.0028
     20  C13        0.6320   33.4330   56.7680 C.ar    0  <0>0       -0.0031
     21  O2         0.8910   34.0150   60.8440 O.3     0  <0>0       -0.4714
     22  C18       -0.3140   33.8710   61.5970 C.3     0  <0>0        0.2525
@<TRIPOS>BOND
     1    11    10   ar
     2    11    12   ar
     3    10     8   ar
     4    12    13   ar
     5     8     9    1
     6     8     7   ar
     7    13     7   ar
     8    13    14    1
     9     7     6    1
    10     6     5    1
    11     5     4    1
    12     4     1    1
    13    20    19   ar
    14    20    15   ar
    15     1    15    1
    16     1     2    1
    17    19    18   ar
    18    15    16   ar
    19     2     3    3
    20    18    17   ar
    21    16    17   ar
    22    17    21    1
    23    21    22    1
