@<TRIPOS>MOLECULE
ZINC58376962_replica-1.pdb
 21 23 0 0 0
SMALL
GASTEIGER

@<TRIPOS>ATOM
      1  N1         6.1610   35.7580   58.4240 N.pl3   0  <0>0       -0.3051
      2  C8         6.5190   36.8540   57.5120 C.3     0  <0>0        0.1051
      3  C9         8.0460   37.0010   57.5090 C.3     0  <0>0        0.0604
      4  N2         8.5750   37.0500   58.8620 N.3     0  <0>0       -0.2989
      5  C10        8.1370   36.0710   59.8380 C.3     0  <0>0        0.0603
      6  C11        6.6190   35.8640   59.8140 C.3     0  <0>0        0.1051
      7  C12        8.4990   36.5950   61.2450 C.3     0  <0>0        0.0161
      8  C13       10.0110   36.7800   61.3480 C.3     0  <0>0        0.0014
      9  C14       10.7130   35.4380   61.1290 C.3     0  <0>0        0.0001
     10  C15       10.3460   34.8940   59.7460 C.3     0  <0>0        0.0014
     11  C16        8.8300   34.7190   59.6600 C.3     0  <0>0        0.0161
     12  C17        8.3830   38.3360   56.8110 C.3     0  <0>0        0.0175
     13  C18        8.6770   35.8760   56.6890 C.3     0  <0>0        0.0175
     14  H28        9.5680   37.2070   58.8770 H       0  <0>0        0.1232
     15  C7         5.4070   34.6680   57.9880 C.ar    0  <0>0        0.0439
     16  C2         4.0190   34.7150   58.0400 C.ar    0  <0>0       -0.0085
     17  C1         3.3260   35.9460   58.5660 C.3     0  <0>0        0.0323
     18  C3         3.2770   33.6370   57.6030 C.ar    0  <0>0       -0.0030
     19  C4         3.9120   32.5080   57.1200 C.ar    0  <0>0       -0.0002
     20  C5         5.2930   32.4550   57.0720 C.ar    0  <0>0        0.0012
     21  C6         6.0420   33.5300   57.5070 C.ar    0  <0>0        0.0142
@<TRIPOS>BOND
     1    13     3    1
     2    12     3    1
     3    20    19   ar
     4    20    21   ar
     5    19    18   ar
     6    21    15   ar
     7     3     2    1
     8     3     4    1
     9     2     1    1
    10    18    16   ar
    11    15    16   ar
    12    15     1    1
    13    16    17    1
    14     1     6    1
    15     4    14    1
    16     4     5    1
    17    11    10    1
    18    11     5    1
    19    10     9    1
    20     6     5    1
    21     5     7    1
    22     9     8    1
    23     7     8    1
