@<TRIPOS>MOLECULE
ZINC13388687_replica-1.pdb
 25 26 0 0 0
SMALL
GASTEIGER

@<TRIPOS>ATOM
      1  C11        8.1340   36.4630   57.9330 C.2     0  <0>0        0.2461
      2  O2         8.2510   37.4910   57.2960 O.2     0  <0>0       -0.2701
      3  N1         7.1690   35.5790   57.6160 N.am    0  <0>0       -0.2977
      4  H15        7.0760   34.7570   58.1250 H       0  <0>0        0.1500
      5  C8         9.0520   36.1830   59.0560 C.ar    0  <0>0        0.0536
      6  C7         9.7850   34.9940   59.0810 C.ar    0  <0>0        0.0076
      7  C6        10.6400   34.7370   60.1310 C.ar    0  <0>0        0.0370
      8  C5        10.7720   35.6580   61.1630 C.ar    0  <0>0        0.1386
      9  C10       10.0430   36.8410   61.1420 C.ar    0  <0>0        0.0370
     10  C9         9.1910   37.1080   60.0930 C.ar    0  <0>0        0.0076
     11  O1        11.6150   35.4000   62.1950 O.3     0  <0>0       -0.4755
     12  C4        12.5930   34.3770   61.9940 C.3     0  <0>0        0.2053
     13  C2        12.5220   33.3710   63.1440 C.3     0  <0>0        0.0438
     14  C1        11.4020   32.3650   62.8740 C.3     0  <0>0        0.0038
     15  C3        13.8560   32.6300   63.2560 C.3     0  <0>0        0.0038
     16  C12        6.2590   35.8570   56.5020 C.3     0  <0>0        0.1116
     17  C13        6.3800   34.7470   55.4550 C.3     0  <0>0        0.1386
     18  C14        6.7370   33.4500   56.1350 C.2     0  <0>0        0.3669
     19  O3         5.8630   32.7190   56.5380 O.co2   0  <0>0       -0.2456
     20  O4         8.0250   33.1090   56.2940 O.co2   0  <0>0       -0.2456
     21  C15        4.8430   35.9130   57.0120 C.ar    0  <0>0        0.0256
     22  S1         4.2500   35.8570   58.6950 S.2     0  <0>0       -0.0891
     23  C18        2.5020   35.9820   58.3510 C.ar    0  <0>0        0.0352
     24  C17        2.4870   36.0520   56.9980 C.ar    0  <0>0        0.0072
     25  C16        3.6860   36.0220   56.3110 C.ar    0  <0>0        0.0043
@<TRIPOS>BOND
     1    17    18    1
     2    17    16    1
     3    18    20   ar
     4    18    19   ar
     5    25    24   ar
     6    25    21   ar
     7    16    21    1
     8    16     3    1
     9    24    23   ar
    10    21    22   ar
    11     2     1    2
    12     3     1   am
    13     3     4    1
    14     1     5    1
    15    23    22   ar
    16     5     6   ar
    17     5    10   ar
    18     6     7   ar
    19    10     9   ar
    20     7     8   ar
    21     9     8   ar
    22     8    11    1
    23    12    11    1
    24    12    13    1
    25    14    13    1
    26    13    15    1
