@<TRIPOS>MOLECULE
ZINC36922297_replica-1.pdb
 20 22 0 0 0
SMALL
GASTEIGER

@<TRIPOS>ATOM
      1  C1        12.3180   35.1620   63.7560 C.3     0  <0>0        0.0196
      2  C2        12.1590   34.3630   62.4620 C.3     0  <0>0        0.0981
      3  C3        13.5260   34.1800   61.8030 C.3     0  <0>0        0.0196
      4  C4        11.5800   33.0440   62.7660 C.1     0  <0>0        0.0752
      5  N1        11.1340   32.0270   63.0010 N.1     0  <0>0       -0.1956
      6  C5        11.2440   35.1070   61.5230 C.ar    0  <0>0       -0.0096
      7  C10       10.7880   36.3690   61.8590 C.ar    0  <0>0       -0.0020
      8  C9         9.9530   37.0550   60.9980 C.ar    0  <0>0        0.0140
      9  C8         9.5630   36.4720   59.7990 C.ar    0  <0>0        0.0446
     10  C7        10.0180   35.2020   59.4680 C.ar    0  <0>0        0.0140
     11  C6        10.8560   34.5230   60.3310 C.ar    0  <0>0       -0.0020
     12  N2         8.7150   37.1610   58.9300 N.pl3   0  <0>0       -0.3340
     13  H11        8.9030   38.0850   58.6990 H       0  <0>0        0.1468
     14  C11        7.5400   36.4910   58.3670 C.3     0  <0>0        0.0689
     15  C12        6.3010   36.8590   59.1850 C.3     0  <0>0        0.0179
     16  C14        5.0910   35.9270   59.0920 C.3     0  <0>0        0.0017
     17  C13        5.9400   35.9530   60.3650 C.3     0  <0>0        0.0017
     18  C15        7.3440   36.9370   56.9170 C.3     0  <0>0        0.0179
     19  C17        8.2060   36.2630   55.8480 C.3     0  <0>0        0.0017
     20  C16        6.7160   35.9340   55.9480 C.3     0  <0>0        0.0017
@<TRIPOS>BOND
     1    19    20    1
     2    19    18    1
     3    20    18    1
     4    18    14    1
     5    14    12    1
     6    14    15    1
     7    13    12    1
     8    12     9    1
     9    16    15    1
    10    16    17    1
    11    15    17    1
    12    10     9   ar
    13    10    11   ar
    14     9     8   ar
    15    11     6   ar
    16     8     7   ar
    17     6     7   ar
    18     6     2    1
    19     3     2    1
    20     2     4    1
    21     2     1    1
    22     4     5    3
