@<TRIPOS>MOLECULE
ZINC12631681_replica-1.pdb
 24 26 0 0 0
SMALL
GASTEIGER

@<TRIPOS>ATOM
      1  N2        -0.9150   30.7090   56.4350 N.am    0  <0>0       -0.1750
      2  C9         0.0720   31.5930   56.5450 C.2     0  <0>0        0.2549
      3  O1         0.8680   31.7290   55.6370 O.2     0  <0>0       -0.2723
      4  C8        -1.0350   29.9780   55.3290 C.3     0  <0>0        0.2246
      5  N1        -0.5550   28.7290   55.0880 N.pl3   0  <0>0       -0.2807
      6  C1         0.2040   28.0250   56.1240 C.3     0  <0>0        0.1146
      7  C2        -0.7820   28.1240   53.8670 C.ar    0  <0>0        0.0617
      8  C7        -0.3710   26.8510   53.4350 C.ar    0  <0>0        0.0484
      9  C3        -1.5190   28.8920   52.9540 C.ar    0  <0>0        0.0422
     10  C6        -0.6870   26.4020   52.1740 C.ar    0  <0>0        0.0080
     11 Br          0.6280   25.7460   54.5990 Br      0  <0>0       -0.0477
     12  C5        -1.4160   27.1830   51.2940 C.ar    0  <0>0        0.0011
     13  C4        -1.8340   28.4410   51.6940 C.ar    0  <0>0        0.0075
     14  S1        -1.8480   30.3860   53.8540 S.3     0  <0>0       -0.0711
     15  C10        0.2070   32.4190   57.7980 C.3     0  <0>0        0.1487
     16  S2         0.5700   34.1390   57.3510 S.3     0  <0>0       -0.1038
     17  C11        2.0420   34.5100   58.2450 C.ar    0  <0>0        0.0259
     18  C16        2.7370   35.6840   57.9820 C.ar    0  <0>0        0.0093
     19  C15        3.8910   35.9750   58.6830 C.ar    0  <0>0        0.0374
     20  C14        4.3560   35.0950   59.6490 C.ar    0  <0>0        0.1388
     21  C13        3.6630   33.9210   59.9110 C.ar    0  <0>0        0.0374
     22  C12        2.5060   33.6320   59.2150 C.ar    0  <0>0        0.0093
     23  O2         5.4920   35.3820   60.3380 O.3     0  <0>0       -0.4714
     24  C17        6.4280   34.3160   60.5170 C.3     0  <0>0        0.2525
@<TRIPOS>BOND
     1    12    13   ar
     2    12    10   ar
     3    13     9   ar
     4    10     8   ar
     5     9    14    1
     6     9     7   ar
     7     8     7   ar
     8     8    11    1
     9    14     4    1
    10     7     5    1
    11     5     4    1
    12     5     6    1
    13     4     1    1
    14     3     2    2
    15     1     2   am
    16     2    15    1
    17    16    15    1
    18    16    17    1
    19    18    17   ar
    20    18    19   ar
    21    17    22   ar
    22    19    20   ar
    23    22    21   ar
    24    20    21   ar
    25    20    23    1
    26    23    24    1
