@<TRIPOS>MOLECULE
ZINC04980491_replica-1.pdb
 33 36 0 0 0
SMALL
GASTEIGER

@<TRIPOS>ATOM
      1  C8         7.8680   37.2120   58.9390 C.2     0  <0>0        0.3013
      2  C9         9.0260   36.9590   59.6180 C.2     0  <0>0        0.1176
      3  C10        9.0700   35.8890   60.5270 C.2     0  <0>0        0.1421
      4  N2         8.0010   35.1300   60.7140 N.2     0  <0>0       -0.3668
      5  C11        6.8640   35.3690   60.0470 C.2     0  <0>0        0.2816
      6  N3         6.7800   36.4080   59.1550 N.pl3   0  <0>0       -0.0355
      7  N4         5.4860   36.4100   58.6190 N.2     0  <0>0       -0.0852
      8  C12        4.8010   35.4170   59.1560 C.2     0  <0>0        0.1107
      9  C13        5.6280   34.7390   60.0580 C.3     0  <0>0        0.1539
     10  N1         7.7970   38.2600   58.0440 N.pl3   0  <0>0       -0.2214
     11  H17        7.3900   39.0990   58.3100 H       0  <0>0        0.2921
     12  C7         8.3350   38.1040   56.6900 C.3     0  <0>0        0.1967
     13  C6         7.1890   37.8400   55.7120 C.3     0  <0>0        0.0279
     14  C5         7.3210   36.4260   55.1420 C.3     0  <0>0       -0.0731
     15  N5         6.4030   35.5290   55.8730 N.4     0  <0>0        0.3870
     16  H29        6.2790   35.8840   56.8290 H       0  <0>0       -0.0797
     17  C2         5.0870   35.4940   55.2010 C.3     0  <0>0       -0.0774
     18  C1         5.0670   34.4160   54.1160 C.3     0  <0>0       -0.0250
     19  C3         6.9720   34.1660   55.9390 C.3     0  <0>0       -0.0774
     20  C4         8.2580   34.2090   56.7670 C.3     0  <0>0       -0.0250
     21  C20       10.3170   35.6050   61.2760 C.ar    0  <0>0        0.0300
     22  C25       10.8080   36.5310   62.1960 C.ar    0  <0>0        0.0025
     23  C24       11.9690   36.2610   62.8900 C.ar    0  <0>0        0.0001
     24  C23       12.6460   35.0740   62.6760 C.ar    0  <0>0        0.0000
     25  C22       12.1640   34.1510   61.7650 C.ar    0  <0>0        0.0001
     26  C21       11.0010   34.4080   61.0680 C.ar    0  <0>0        0.0025
     27  C14        3.3880   35.0770   58.8540 C.ar    0  <0>0        0.0177
     28  C19        2.6350   35.9010   58.0200 C.ar    0  <0>0        0.0036
     29  C18        1.3220   35.5820   57.7400 C.ar    0  <0>0        0.0297
     30  C17        0.7520   34.4440   58.2890 C.ar    0  <0>0        0.1401
     31  C16        1.4970   33.6220   59.1200 C.ar    0  <0>0        0.0297
     32  F1        -0.5330   34.1340   58.0140 F       0  <0>0       -0.2042
     33  C15        2.8130   33.9320   59.3990 C.ar    0  <0>0        0.0036
@<TRIPOS>BOND
     1    18    17    1
     2    14    13    1
     3    14    15    1
     4    17    15    1
     5    13    12    1
     6    15    19    1
     7    15    16    1
     8    19    20    1
     9    12    10    1
    10    29    28   ar
    11    29    30   ar
    12    32    30    1
    13    28    27   ar
    14    10    11    1
    15    10     1    1
    16    30    31   ar
    17     7     6    1
    18     7     8    2
    19    27     8    1
    20    27    33   ar
    21     1     6    1
    22     1     2    2
    23    31    33   ar
    24     6     5    1
    25     8     9    1
    26     2     3    1
    27     5     9    1
    28     5     4    2
    29     3     4    2
    30     3    21    1
    31    26    21   ar
    32    26    25   ar
    33    21    22   ar
    34    25    24   ar
    35    22    23   ar
    36    24    23   ar
