@<TRIPOS>MOLECULE
ZINC08975534_replica-1.pdb
 27 31 0 0 0
SMALL
GASTEIGER

@<TRIPOS>ATOM
      1  N2         6.1390   34.5490   60.1460 N.pl3   0  <0>0       -0.2749
      2  C9         7.1110   35.6360   59.9610 C.3     0  <0>0        0.1151
      3  C10        8.3470   35.3630   60.8230 C.3     0  <0>0        0.1151
      4  N3         8.9290   34.0690   60.4430 N.pl3   0  <0>0       -0.2750
      5  C11        7.9580   32.9830   60.6270 C.3     0  <0>0        0.1151
      6  C12        6.7230   33.2550   59.7660 C.3     0  <0>0        0.1151
      7  C8         4.9800   34.7960   59.4370 C.2     0  <0>0        0.2148
      8  N1         3.7720   34.3240   59.6440 N.2     0  <0>0       -0.3796
      9  C7         2.7200   34.6550   58.8620 C.2     0  <0>0        0.1446
     10  C2         1.3730   34.2200   58.9730 C.2     0  <0>0        0.0514
     11  C6         3.0000   35.5470   57.8040 C.2     0  <0>0        0.0592
     12  C3         0.4180   34.6600   58.0830 C.2     0  <0>0       -0.0127
     13  C4         0.7360   35.5360   57.0570 C.3     0  <0>0        0.0532
     14  C5         2.0390   35.9790   56.9210 C.2     0  <0>0       -0.0122
     15  S2         4.7410   35.8410   58.0070 S.3     0  <0>0       -0.0378
     16  S1         0.9210   33.1060   60.2610 S.3     0  <0>0       -0.1105
     17  C1        -0.1040   34.1110   61.3700 C.3     0  <0>0        0.0742
     18  C13       10.0880   33.8220   61.1510 C.2     0  <0>0        0.2144
     19  S3        11.4390   34.9340   61.5140 S.3     0  <0>0       -0.0378
     20  C19       12.4350   33.7850   62.4330 C.2     0  <0>0        0.0610
     21  C14       11.6550   32.6080   62.3900 C.2     0  <0>0        0.1217
     22  C18       13.6490   33.8460   63.0700 C.2     0  <0>0        0.0381
     23  N4        10.4820   32.7070   61.7240 N.2     0  <0>0       -0.3841
     24  C15       12.1920   31.4770   63.0460 C.3     0  <0>0        0.0879
     25  C16       13.4050   31.5450   63.6810 C.2     0  <0>0        0.0110
     26  C17       14.1460   32.7200   63.7030 C.2     0  <0>0        0.1369
     27  F1        15.3400   32.7610   64.3340 F       0  <0>0       -0.2045
@<TRIPOS>BOND
     1    14    13    1
     2    14    11    2
     3    13    12    1
     4    11    15    1
     5    11     9    1
     6    15     7    1
     7    12    10    2
     8     9    10    1
     9     9     8    2
    10    10    16    1
    11     7     8    2
    12     7     1    1
    13     6     1    1
    14     6     5    1
    15     2     1    1
    16     2     3    1
    17    16    17    1
    18     4     5    1
    19     4     3    1
    20     4    18    1
    21    18    19    1
    22    18    23    2
    23    19    20    1
    24    23    21    2
    25    21    20    1
    26    21    24    1
    27    20    22    2
    28    24    25    1
    29    22    26    1
    30    25    26    2
    31    26    27    1
