@<TRIPOS>MOLECULE
ZINC14163870_replica-1.pdb
 30 34 0 0 0
SMALL
GASTEIGER

@<TRIPOS>ATOM
      1  C1         4.4900   31.1700   60.3960 C.3     0  <0>0        0.0520
      2  C2         5.1050   32.5250   60.1600 C.2     0  <0>0        0.0928
      3  C3         4.4530   33.6280   59.5950 C.3     0  <0>0        0.1694
      4  C4         5.3740   34.6800   59.5550 C.2     0  <0>0        0.3328
      5  N1         5.2770   35.9420   59.1190 N.2     0  <0>0       -0.0379
      6  C5         6.2980   36.7610   59.1840 C.2     0  <0>0        0.2378
      7  C6         7.5270   36.3110   59.7240 C.2     0  <0>0        0.1035
      8  C7         7.6340   35.0120   60.1800 C.3     0  <0>0        0.2163
      9  N2         6.5440   34.2000   60.0880 N.pl3   0  <0>0       -0.0796
     10  N3         6.3370   32.8640   60.4500 N.2     0  <0>0       -0.0956
     11  C8         8.9090   34.4800   60.7700 C.3     0  <0>0        0.0588
     12  C9        10.1160   35.2900   60.3030 C.3     0  <0>0        0.0341
     13  C10        9.8790   36.7750   60.6080 C.3     0  <0>0        0.0736
     14  C11        8.6830   37.2190   59.7920 C.2     0  <0>0        0.1769
     15  O1         8.6760   38.2870   59.2160 O.2     0  <0>0       -0.2914
     16  C12       11.3500   34.8180   61.0270 C.2     0  <0>0       -0.0259
     17  C13       11.2800   33.7840   61.8530 C.2     0  <0>0       -0.0046
     18  C14       12.4910   33.3230   62.5640 C.ar    0  <0>0       -0.0003
     19  C19       13.5820   34.1800   62.7210 C.ar    0  <0>0       -0.0000
     20  C18       14.7100   33.7420   63.3820 C.ar    0  <0>0       -0.0000
     21  C17       14.7620   32.4570   63.8920 C.ar    0  <0>0       -0.0000
     22  C16       13.6840   31.6030   63.7420 C.ar    0  <0>0       -0.0000
     23  C15       12.5500   32.0280   63.0810 C.ar    0  <0>0       -0.0000
     24  C20        3.0470   33.6730   59.1260 C.ar    0  <0>0       -0.0054
     25  C25        2.7320   33.2890   57.8230 C.ar    0  <0>0       -0.0010
     26  C24        1.4230   33.3320   57.3910 C.ar    0  <0>0        0.0293
     27  C23        0.4210   33.7550   58.2510 C.ar    0  <0>0        0.1401
     28  C22        0.7290   34.1370   59.5470 C.ar    0  <0>0        0.0293
     29  F1        -0.8590   33.7960   57.8230 F       0  <0>0       -0.2042
     30  C21        2.0360   34.0930   59.9880 C.ar    0  <0>0       -0.0010
@<TRIPOS>BOND
     1    26    25   ar
     2    26    27   ar
     3    29    27    1
     4    25    24   ar
     5    27    28   ar
     6     5     6    1
     7     5     4    2
     8    24     3    1
     9    24    30   ar
    10     6     7    2
    11    15    14    2
    12    28    30   ar
    13     4     3    1
    14     4     9    1
    15     3     2    1
    16     7    14    1
    17     7     8    1
    18    14    13    1
    19     9     8    1
    20     9    10    1
    21     2     1    1
    22     2    10    2
    23     8    11    1
    24    12    13    1
    25    12    11    1
    26    12    16    1
    27    16    17    2
    28    17    18    1
    29    18    19   ar
    30    18    23   ar
    31    19    20   ar
    32    23    22   ar
    33    20    21   ar
    34    22    21   ar
