@<TRIPOS>MOLECULE
ZINC00621513_replica-1.pdb
 26 28 0 0 0
SMALL
GASTEIGER

@<TRIPOS>ATOM
      1  C10       -1.0560   28.8980   56.6590 C.2     0  <0>0        0.1353
      2  S1        -2.7400   28.5960   56.6060 S.2     0  <0>0       -0.0185
      3  N2        -0.3630   29.0550   55.5150 N.am    0  <0>0       -0.2959
      4  H13        0.6010   29.1640   55.5420 H       0  <0>0        0.1539
      5  N1        -0.4230   28.9790   57.8470 N.am    0  <0>0       -0.3138
      6  H12       -0.8330   28.6030   58.6410 H       0  <0>0        0.1487
      7  C2         0.8830   29.6360   57.9370 C.3     0  <0>0        0.0932
      8  C1         1.8590   28.7270   58.6880 C.3     0  <0>0        0.0261
      9  C3         0.7400   30.9400   58.6780 C.ar    0  <0>0       -0.0043
     10  C8         0.8300   30.9650   60.0570 C.ar    0  <0>0        0.0004
     11  C7         0.7000   32.1600   60.7380 C.ar    0  <0>0        0.0366
     12  C6         0.4780   33.3350   60.0370 C.ar    0  <0>0        0.1387
     13  C5         0.3880   33.3090   58.6530 C.ar    0  <0>0        0.0366
     14  C4         0.5250   32.1120   57.9760 C.ar    0  <0>0        0.0004
     15  O1         0.3510   34.5120   60.7050 O.3     0  <0>0       -0.4714
     16  C9        -0.4120   34.4940   61.9120 C.3     0  <0>0        0.2525
     17  C11       -1.0310   29.0600   54.2900 C.ar    0  <0>0        0.0495
     18  C16       -0.9190   27.9610   53.4120 C.ar    0  <0>0        0.0135
     19  C15       -1.6050   27.9880   52.1740 C.ar    0  <0>0        0.0012
     20  C17       -0.1380   26.8420   53.7440 C.ar    0  <0>0        0.0012
     21  C14       -2.3850   29.1080   51.8400 C.ar    0  <0>0        0.0001
     22  C20       -1.4920   26.8930   51.2990 C.ar    0  <0>0        0.0000
     23  C13       -2.4770   30.1560   52.7050 C.ar    0  <0>0        0.0013
     24  C12       -1.8020   30.1430   53.9220 C.ar    0  <0>0        0.0146
     25  C19       -0.7280   25.8240   51.6540 C.ar    0  <0>0        0.0000
     26  C18       -0.0530   25.7980   52.8730 C.ar    0  <0>0        0.0000
@<TRIPOS>BOND
     1    22    25   ar
     2    22    19   ar
     3    25    26   ar
     4    21    19   ar
     5    21    23   ar
     6    19    18   ar
     7    23    24   ar
     8    26    20   ar
     9    18    20   ar
    10    18    17   ar
    11    24    17   ar
    12    17     3    1
    13     3     4    1
    14     3     1    1
    15     2     1    2
    16     1     5    1
    17     5     7    1
    18     5     6    1
    19     7     9    1
    20     7     8    1
    21    14    13   ar
    22    14     9   ar
    23    13    12   ar
    24     9    10   ar
    25    12    15    1
    26    12    11   ar
    27    10    11   ar
    28    15    16    1
