@<TRIPOS>MOLECULE
ZINC02252229_replica-1.pdb
 29 32 0 0 0
SMALL
GASTEIGER

@<TRIPOS>ATOM
      1  N1         2.5340   33.9010   58.0490 N.am    0  <0>0       -0.2067
      2  C8         3.7010   34.5720   58.0650 C.2     0  <0>0        0.2459
      3  O1         4.1640   34.9810   59.1160 O.2     0  <0>0       -0.2733
      4  C9         4.3940   34.7930   56.8340 C.3     0  <0>0        0.1545
      5  C10        5.6630   35.4830   56.6160 C.2     0  <0>0       -0.0219
      6  C11        6.1090   35.5660   55.3440 C.2     0  <0>0        0.0319
      7  S1         4.8800   34.7410   54.3720 S.3     0  <0>0       -0.0615
      8  C12        3.7700   34.2850   55.6800 C.2     0  <0>0        0.1525
      9  N2         2.6130   33.6360   55.7300 N.2     0  <0>0       -0.3773
     10  C13        1.9970   33.4400   56.8790 C.2     0  <0>0        0.2206
     11  C18        7.3770   36.2220   54.8890 C.3     0  <0>0        0.1744
     12  O2         8.1880   36.4630   56.0500 O.3     0  <0>0       -0.3506
     13  C19        7.4780   37.0890   57.1220 C.3     0  <0>0        0.1197
     14  C20        6.4860   36.1020   57.7430 C.3     0  <0>0        0.0527
     15  C5         1.8540   33.6780   59.2530 C.ar    0  <0>0        0.0608
     16  C4         2.1480   32.5590   60.0200 C.ar    0  <0>0        0.0150
     17  C3         1.4760   32.3410   61.2070 C.ar    0  <0>0       -0.0030
     18  C2         0.5110   33.2350   61.6310 C.ar    0  <0>0       -0.0218
     19  C1        -0.2210   32.9940   62.9260 C.3     0  <0>0        0.0310
     20  C7         0.2150   34.3500   60.8690 C.ar    0  <0>0       -0.0030
     21  C6         0.8840   34.5740   59.6820 C.ar    0  <0>0        0.0150
     22  S2         0.4640   32.5730   56.9090 S.3     0  <0>0       -0.0619
     23  C14        0.7550   31.3760   55.5830 C.3     0  <0>0        0.0879
     24  C15       -0.5560   30.7640   55.1620 C.2     0  <0>0       -0.0327
     25  C16       -0.6150   30.0160   54.0890 C.2     0  <0>0       -0.0082
     26  C17       -1.7990   31.0110   55.9780 C.3     0  <0>0        0.0273
     27  C21        8.4730   37.5480   58.1900 C.3     0  <0>0        0.0276
     28  C22        7.7490   38.4160   59.2220 C.3     0  <0>0        0.0025
     29  C23        9.0770   36.3260   58.8840 C.3     0  <0>0        0.0025
@<TRIPOS>BOND
     1    25    24    2
     2     7     6    1
     3     7     8    1
     4    11     6    1
     5    11    12    1
     6    24    23    1
     7    24    26    1
     8     6     5    2
     9    23    22    1
    10     8     9    2
    11     8     4    1
    12     9    10    2
    13    12    13    1
    14     5     4    1
    15     5    14    1
    16     4     2    1
    17    10    22    1
    18    10     1    1
    19    13    14    1
    20    13    27    1
    21     1     2   am
    22     1    15    1
    23     2     3    2
    24    27    29    1
    25    27    28    1
    26    15    21   ar
    27    15    16   ar
    28    21    20   ar
    29    16    17   ar
    30    20    18   ar
    31    17    18   ar
    32    18    19    1
