@<TRIPOS>MOLECULE
ZINC15906108_replica-1.pdb
 32 36 0 0 0
SMALL
GASTEIGER

@<TRIPOS>ATOM
      1  C7         5.9430   35.6450   57.3330 C.2     0  <0>0        0.0523
      2  C8         6.9960   34.9860   57.8840 C.2     0  <0>0        0.0491
      3  C9         8.3890   35.4700   57.5380 C.3     0  <0>0        0.1224
      4  N1         8.4920   36.6210   56.6260 N.am    0  <0>0       -0.2827
      5  C10        7.3600   37.1770   56.1540 C.2     0  <0>0        0.3049
      6  O1         7.4420   38.1270   55.4000 O.2     0  <0>0       -0.2525
      7  N2         6.1460   36.7150   56.4810 N.am    0  <0>0       -0.2684
      8  H7         9.3590   36.9730   56.3700 H       0  <0>0        0.1515
      9  H8         5.3690   37.1570   56.1050 H       0  <0>0        0.1564
     10  C17        6.7920   33.8510   58.7820 C.2     0  <0>0        0.1601
     11  S1         6.3090   33.8550   60.5020 S.3     0  <0>0       -0.0534
     12  C23        6.3120   32.0940   60.7400 C.2     0  <0>0        0.0574
     13  C18        6.6980   31.6180   59.4640 C.2     0  <0>0        0.1374
     14  C22        6.0490   31.2560   61.7940 C.2     0  <0>0       -0.0123
     15  N3         6.9210   32.5600   58.5300 N.2     0  <0>0       -0.3951
     16  C19        6.8000   30.2120   59.3290 C.2     0  <0>0        0.0283
     17  C20        6.5370   29.3890   60.3800 C.2     0  <0>0       -0.0188
     18  C21        6.1600   29.8870   61.6190 C.3     0  <0>0        0.0527
     19  C4         4.5670   35.2080   57.6420 C.ar    0  <0>0        0.0134
     20  C3         3.8080   35.8980   58.5920 C.ar    0  <0>0        0.0012
     21  C2         2.5230   35.4850   58.8750 C.ar    0  <0>0        0.0000
     22  C1         1.9840   34.3910   58.2220 C.ar    0  <0>0        0.0000
     23  C6         2.7300   33.7030   57.2790 C.ar    0  <0>0        0.0000
     24  C5         4.0160   34.1060   56.9860 C.ar    0  <0>0        0.0012
     25  C11        9.0870   35.8330   58.8230 C.ar    0  <0>0        0.0007
     26  C16        9.9870   34.9530   59.3920 C.ar    0  <0>0        0.0099
     27  C15       10.6320   35.2890   60.5690 C.ar    0  <0>0        0.0679
     28  C14       10.3680   36.5030   61.1810 C.ar    0  <0>0        0.0682
     29 Cl         11.7690   34.1870   61.2820 Cl      0  <0>0       -0.0814
     30  C13        9.4620   37.3800   60.6120 C.ar    0  <0>0        0.0120
     31 Cl         11.1720   36.9230   62.6610 Cl      0  <0>0       -0.0814
     32  C12        8.8220   37.0460   59.4340 C.ar    0  <0>0       -0.0014
@<TRIPOS>BOND
     1     6     5    2
     2     9     7    1
     3     5     7   am
     4     5     4   am
     5     8     4    1
     6     7     1    1
     7     4     3    1
     8    24    23   ar
     9    24    19   ar
    10    23    22   ar
    11     1    19    1
    12     1     2    2
    13     3     2    1
    14     3    25    1
    15    19    20   ar
    16     2    10    1
    17    22    21   ar
    18    15    10    2
    19    15    13    2
    20    20    21   ar
    21    10    11    1
    22    25    26   ar
    23    25    32   ar
    24    16    13    1
    25    16    17    2
    26    26    27   ar
    27    32    30   ar
    28    13    12    1
    29    17    18    1
    30    11    12    1
    31    27    28   ar
    32    27    29    1
    33    30    28   ar
    34    12    14    2
    35    28    31    1
    36    18    14    1
