@<TRIPOS>MOLECULE
ZINC43298961_replica-1.pdb
 21 23 0 0 0
SMALL
GASTEIGER

@<TRIPOS>ATOM
      1  C1         7.0390   37.5500   55.5490 C.2     0  <0>0       -0.0038
      2  C2         7.4490   38.6590   56.2850 C.2     0  <0>0        0.0020
      3  C3         8.1970   38.5160   57.4120 C.2     0  <0>0        0.0282
      4  C4         8.5660   37.2310   57.8470 C.2     0  <0>0        0.1184
      5  C5         8.1470   36.1040   57.0980 C.3     0  <0>0        0.0939
      6  C6         7.3760   36.2890   55.9390 C.2     0  <0>0       -0.0153
      7  C7         8.5170   34.8160   57.5340 C.2     0  <0>0       -0.0136
      8  C8         9.2660   34.7080   58.6670 C.2     0  <0>0        0.0456
      9  C9         9.6480   35.8610   59.3630 C.2     0  <0>0        0.2137
     10  N1         9.3000   37.0620   58.9510 N.2     0  <0>0       -0.3863
     11  N2        10.4160   35.7340   60.5220 N.ar    0  <0>0       -0.2007
     12  N3        11.2930   34.6840   60.8210 N.ar    0  <0>0       -0.1589
     13  C12       11.8300   34.9180   61.9900 C.ar    0  <0>0        0.1741
     14  C11       11.3090   36.1210   62.4820 C.ar    0  <0>0        0.0456
     15  C10       10.4410   36.6060   61.5640 C.ar    0  <0>0        0.1046
     16  C13       12.8350   34.0400   62.6910 C.3     0  <0>0        0.4366
     17  F1        13.9720   33.9010   61.8880 F       0  <0>0       -0.1643
     18  F2        13.1930   34.6230   63.9110 F       0  <0>0       -0.1643
     19  F3        12.2720   32.7800   62.9230 F       0  <0>0       -0.1643
     20  C14        8.0930   33.5890   56.7670 C.3     0  <0>0        0.1177
     21 Cl          8.4240   32.1180   57.7560 Cl      0  <0>0       -0.1089
@<TRIPOS>BOND
     1     1     6    2
     2     1     2    1
     3     6     5    1
     4     2     3    2
     5    20     7    1
     6    20    21    1
     7     5     7    1
     8     5     4    1
     9     3     4    1
    10     7     8    2
    11     4    10    2
    12     8     9    1
    13    10     9    2
    14     9    11    1
    15    11    12   ar
    16    11    15   ar
    17    12    13   ar
    18    15    14   ar
    19    17    16    1
    20    13    14   ar
    21    13    16    1
    22    16    19    1
    23    16    18    1
