@<TRIPOS>MOLECULE
ZINC59367351_replica-1.pdb
 28 31 0 0 0
SMALL
GASTEIGER

@<TRIPOS>ATOM
      1  C8         0.2270   32.9600   57.1290 C.3     0  <0>0        0.1244
      2  C9        -0.6770   31.8880   56.4880 C.3     0  <0>0        0.0737
      3  C10        0.2410   31.1620   55.5320 C.2     0  <0>0        0.0785
      4  N1         1.4190   31.6800   55.5880 N.2     0  <0>0       -0.1821
      5  N2         1.5330   32.7430   56.4870 N.pl3   0  <0>0       -0.2090
      6  C5         0.3250   32.7500   58.6170 C.ar    0  <0>0       -0.0018
      7  C4         0.4570   31.4710   59.1260 C.ar    0  <0>0        0.0005
      8  C3         0.5460   31.2730   60.4910 C.ar    0  <0>0        0.0366
      9  C2         0.5050   32.3610   61.3510 C.ar    0  <0>0        0.1387
     10  C7         0.3670   33.6430   60.8380 C.ar    0  <0>0        0.0366
     11  C6         0.2840   33.8350   59.4730 C.ar    0  <0>0        0.0005
     12  O1         0.5930   32.1700   62.6940 O.3     0  <0>0       -0.4714
     13  C1        -0.3390   31.2600   63.2820 C.3     0  <0>0        0.2525
     14  C11        2.6930   33.4780   56.7380 C.ar    0  <0>0        0.0694
     15  C16        2.6950   34.8570   56.5640 C.ar    0  <0>0        0.0168
     16  C15        3.8420   35.5810   56.8200 C.ar    0  <0>0        0.0080
     17  C14        4.9920   34.9350   57.2360 C.ar    0  <0>0        0.0346
     18  C13        4.9960   33.5610   57.4040 C.ar    0  <0>0        0.0080
     19 Br          6.5630   35.9300   57.5770 Br      0  <0>0       -0.0490
     20  C12        3.8500   32.8310   57.1560 C.ar    0  <0>0        0.0168
     21  C17       -0.1530   30.0330   54.6670 C.ar    0  <0>0        0.0153
     22  C22       -1.2400   30.1610   53.8010 C.ar    0  <0>0        0.0043
     23  C21       -1.6010   29.1060   52.9900 C.ar    0  <0>0        0.0369
     24  C20       -0.8920   27.9130   53.0430 C.ar    0  <0>0        0.1387
     25  C19        0.1870   27.7790   53.9070 C.ar    0  <0>0        0.0369
     26  C18        0.5580   28.8310   54.7170 C.ar    0  <0>0        0.0043
     27  O2        -1.2550   26.8730   52.2470 O.3     0  <0>0       -0.4714
     28  C23       -0.4710   25.6830   52.3380 C.3     0  <0>0        0.2525
@<TRIPOS>BOND
     1    27    28    1
     2    27    24    1
     3    23    24   ar
     4    23    22   ar
     5    24    25   ar
     6    22    21   ar
     7    25    26   ar
     8    21    26   ar
     9    21     3    1
    10     3     4    2
    11     3     2    1
    12     4     5    1
    13     5    14    1
    14     5     1    1
    15     2     1    1
    16    15    14   ar
    17    15    16   ar
    18    14    20   ar
    19    16    17   ar
    20     1     6    1
    21    20    18   ar
    22    17    18   ar
    23    17    19    1
    24     6     7   ar
    25     6    11   ar
    26     7     8   ar
    27    11    10   ar
    28     8     9   ar
    29    10     9   ar
    30     9    12    1
    31    12    13    1
