@<TRIPOS>MOLECULE
ZINC13774568_replica-1.pdb
 24 25 0 0 0
SMALL
GASTEIGER

@<TRIPOS>ATOM
      1  C3         8.5360   36.6930   59.0770 C.3     0  <0>0        0.0931
      2  C2         8.7050   38.2130   59.0130 C.3     0  <0>0        0.0241
      3  C1         7.3410   38.8850   59.1800 C.3     0  <0>0        0.0021
      4  C4         9.5590   36.1140   60.0200 C.ar    0  <0>0       -0.0046
      5  C9         9.9330   36.8160   61.1510 C.ar    0  <0>0       -0.0030
      6  C8        10.8680   36.2820   62.0180 C.ar    0  <0>0       -0.0045
      7  C7        11.4350   35.0510   61.7510 C.ar    0  <0>0       -0.0225
      8  C6        11.0650   34.3500   60.6170 C.ar    0  <0>0       -0.0045
      9  C5        10.1280   34.8830   59.7520 C.ar    0  <0>0       -0.0030
     10  C10       12.4570   34.4710   62.6940 C.3     0  <0>0        0.0224
     11  C11       12.0040   33.0800   63.1450 C.3     0  <0>0        0.0047
     12  C12       13.8050   34.3620   61.9790 C.3     0  <0>0        0.0047
     13  N1         8.7250   36.1230   57.7410 N.am    0  <0>0       -0.3140
     14  H30        9.5920   36.1780   57.3090 H       0  <0>0        0.1487
     15  C13        7.6820   35.5150   57.1040 C.2     0  <0>0        0.1315
     16  S1         7.7870   33.9130   56.6800 S.2     0  <0>0       -0.0189
     17  N2         6.5500   36.2240   56.8160 N.am    0  <0>0       -0.3177
     18  H18        6.6180   37.0990   56.4030 H       0  <0>0        0.1484
     19  C14        5.2330   35.6630   57.1290 C.3     0  <0>0        0.0706
     20  C19        4.8420   36.0460   58.5580 C.3     0  <0>0        0.0195
     21  C18        3.4670   35.4600   58.8850 C.3     0  <0>0        0.0017
     22  C17        2.4310   36.0140   57.9060 C.3     0  <0>0        0.0001
     23  C16        2.8220   35.6310   56.4770 C.3     0  <0>0        0.0017
     24  C15        4.1960   36.2170   56.1500 C.3     0  <0>0        0.0195
@<TRIPOS>BOND
     1    24    23    1
     2    24    19    1
     3    18    17    1
     4    23    22    1
     5    16    15    2
     6    17    15    1
     7    17    19    1
     8    15    13    1
     9    19    20    1
    10    14    13    1
    11    13     1    1
    12    22    21    1
    13    20    21    1
    14     2     1    1
    15     2     3    1
    16     1     4    1
    17     9     4   ar
    18     9     8   ar
    19     4     5   ar
    20     8     7   ar
    21     5     6   ar
    22     7     6   ar
    23     7    10    1
    24    12    10    1
    25    10    11    1
