@<TRIPOS>MOLECULE
ZINC59146511_replica-1.pdb
 32 35 0 0 0
SMALL
GASTEIGER

@<TRIPOS>ATOM
      1  N1        -1.7510   30.4480   56.0450 N.am    0  <0>0       -0.2574
      2  C10       -2.0130   29.3670   56.8800 C.ar    0  <0>0        0.0517
      3  C11       -3.0230   28.4110   56.8640 C.ar    0  <0>0        0.0146
      4  C12       -3.0570   27.4230   57.8270 C.ar    0  <0>0        0.0013
      5  C13       -2.0900   27.3690   58.8170 C.ar    0  <0>0       -0.0002
      6  C14       -1.0790   28.3090   58.8490 C.ar    0  <0>0       -0.0012
      7  C15       -1.0370   29.3090   57.8830 C.ar    0  <0>0        0.0177
      8  C16       -0.1150   30.4420   57.6360 C.3     0  <0>0        0.1934
      9  C24       -0.6480   31.1120   56.4340 C.2     0  <0>0        0.2513
     10  O1        -0.1760   32.0940   55.8930 O.2     0  <0>0       -0.2726
     11  N2         0.9470   30.7740   58.3290 N.3     0  <0>0       -0.1197
     12  N3         2.2130   30.7480   57.7300 N.am    0  <0>0       -0.2433
     13  H14        2.6190   29.9010   57.4920 H       0  <0>0        0.1696
     14  C17        2.8660   31.9010   57.4830 C.2     0  <0>0        0.1497
     15  S1         3.7470   32.6700   58.7330 S.2     0  <0>0       -0.0173
     16  N4         2.8240   32.4490   56.2520 N.am    0  <0>0       -0.2949
     17  H15        2.3760   31.9830   55.5290 H       0  <0>0        0.1539
     18  C18        3.4260   33.6890   56.0180 C.ar    0  <0>0        0.0496
     19  C23        2.7300   34.8610   56.2860 C.ar    0  <0>0        0.0146
     20  C22        3.3300   36.0860   56.0600 C.ar    0  <0>0        0.0013
     21  C21        4.6170   36.1440   55.5570 C.ar    0  <0>0        0.0001
     22  C20        5.3090   34.9790   55.2840 C.ar    0  <0>0        0.0013
     23  C19        4.7180   33.7530   55.5120 C.ar    0  <0>0        0.0146
     24  C9        -2.5680   30.8130   54.8860 C.3     0  <0>0        0.0986
     25  C8        -2.4740   29.7290   53.8440 C.3     0  <0>0        0.0266
     26  C7        -1.2990   29.4210   53.3120 C.3     0  <0>0        0.0281
     27  C4        -1.0290   28.0380   52.8670 C.ar    0  <0>0       -0.0221
     28  C3        -0.2720   27.1810   53.6670 C.ar    0  <0>0       -0.0043
     29  C2        -0.0230   25.8900   53.2460 C.ar    0  <0>0       -0.0003
     30  C1        -0.5240   25.4460   52.0350 C.ar    0  <0>0       -0.0000
     31  C6        -1.2760   26.2900   51.2390 C.ar    0  <0>0       -0.0003
     32  C5        -1.5310   27.5830   51.6480 C.ar    0  <0>0       -0.0043
@<TRIPOS>BOND
     1    31    32   ar
     2    31    30   ar
     3    32    27   ar
     4    30    29   ar
     5    27    26    1
     6    27    28   ar
     7    29    28   ar
     8    26    25    1
     9    25    24    1
    10    24     1    1
    11    22    23   ar
    12    22    21   ar
    13    23    18   ar
    14    17    16    1
    15    21    20   ar
    16    10     9    2
    17    18    16    1
    18    18    19   ar
    19     1     9   am
    20     1     2    1
    21    20    19   ar
    22    16    14    1
    23     9     8    1
    24     3     2   ar
    25     3     4   ar
    26     2     7   ar
    27    14    12    1
    28    14    15    2
    29    13    12    1
    30     8     7    1
    31     8    11    1
    32    12    11    1
    33     4     5   ar
    34     7     6   ar
    35     5     6   ar
