@<TRIPOS>MOLECULE
ZINC53850819_replica-1.pdb
 22 24 0 0 0
SMALL
GASTEIGER

@<TRIPOS>ATOM
      1  C9        10.3610   34.9040   60.5060 C.2     0  <0>0        0.1853
      2  N1        10.1520   36.1940   60.9100 N.am    0  <0>0       -0.2589
      3  H1        10.4770   36.4870   61.7750 H       0  <0>0        0.1573
      4  C10        9.4950   37.0640   60.1080 C.2     0  <0>0        0.2383
      5  O2         9.3010   38.2160   60.4520 O.2     0  <0>0       -0.2739
      6  C11        9.0240   36.5670   58.8070 C.3     0  <0>0        0.1513
      7  C12        8.3390   37.3840   57.9110 C.2     0  <0>0       -0.0036
      8  C13        7.9210   36.8650   56.7040 C.2     0  <0>0        0.0312
      9  C14        8.1770   35.5390   56.3790 C.2     0  <0>0        0.0087
     10  C15        8.8480   34.7200   57.2430 C.2     0  <0>0        0.0289
     11  C16        9.2850   35.2180   58.4740 C.2     0  <0>0        0.1230
     12  N2         9.9540   34.4420   59.3500 N.2     0  <0>0       -0.3904
     13 Br          6.9890   37.9670   55.4820 Br      0  <0>0       -0.0493
     14  C6        11.0830   33.9890   61.4140 C.ar    0  <0>0        0.0443
     15  C5        10.4930   32.7860   61.8100 C.ar    0  <0>0        0.0070
     16  C4        11.1710   31.9370   62.6560 C.ar    0  <0>0        0.0370
     17  C3        12.4380   32.2740   63.1150 C.ar    0  <0>0        0.1386
     18  C8        13.0260   33.4720   62.7280 C.ar    0  <0>0        0.0370
     19  C7        12.3570   34.3250   61.8770 C.ar    0  <0>0        0.0070
     20  O1        13.1030   31.4340   63.9490 O.3     0  <0>0       -0.4755
     21  C2        12.8990   30.0320   63.7560 C.3     0  <0>0        0.2055
     22  C1        12.4510   29.3950   65.0730 C.3     0  <0>0        0.0512
@<TRIPOS>BOND
     1    13     8    1
     2     9     8    1
     3     9    10    2
     4     8     7    2
     5    10    11    1
     6     7     6    1
     7    11     6    1
     8    11    12    2
     9     6     4    1
    10    12     1    2
    11     4     5    2
    12     4     2   am
    13     1     2    1
    14     1    14    1
    15     2     3    1
    16    14    15   ar
    17    14    19   ar
    18    15    16   ar
    19    19    18   ar
    20    16    17   ar
    21    18    17   ar
    22    17    20    1
    23    21    20    1
    24    21    22    1
