@<TRIPOS>MOLECULE
ZINC52098428_replica-1.pdb
 22 23 0 0 0
SMALL
GASTEIGER

@<TRIPOS>ATOM
      1  N1         0.0430   30.0180   55.5940 N.3     0  <0>0       -0.2925
      2  H12       -0.2080   30.9190   55.2160 H       0  <0>0        0.1236
      3  C4        -0.0830   30.0070   57.0580 C.3     0  <0>0        0.0829
      4  C3        -1.5070   29.6020   57.4440 C.3     0  <0>0        0.0208
      5  C2        -1.4570   28.6000   58.5980 C.3     0  <0>0        0.0017
      6  C1        -2.3020   27.3730   58.2460 C.3     0  <0>0        0.0001
      7  C5         0.2120   31.3820   57.5980 C.ar    0  <0>0        0.0215
      8  S1         0.7810   31.8530   59.2240 S.2     0  <0>0       -0.0895
      9  C8         0.8510   33.6180   58.9650 C.ar    0  <0>0        0.0352
     10  C7         0.4360   33.7290   57.6790 C.ar    0  <0>0        0.0072
     11  C6         0.1090   32.5830   56.9790 C.ar    0  <0>0        0.0040
     12  C9        -0.7640   28.9510   54.9880 C.3     0  <0>0        0.1003
     13  C10        0.1580   27.8470   54.4670 C.3     0  <0>0        0.1215
     14  C11        0.3190   26.7680   55.5410 C.3     0  <0>0        0.0353
     15  C12       -0.4380   27.2360   53.2260 C.ar    0  <0>0        0.0030
     16  C17       -0.2040   25.9070   52.9290 C.ar    0  <0>0       -0.0020
     17  C16       -0.7560   25.3450   51.7920 C.ar    0  <0>0       -0.0002
     18  C15       -1.5340   26.1160   50.9480 C.ar    0  <0>0       -0.0000
     19  C14       -1.7640   27.4470   51.2430 C.ar    0  <0>0       -0.0002
     20  C13       -1.2160   28.0070   52.3820 C.ar    0  <0>0       -0.0020
     21  O1         1.4380   28.4030   54.1560 O.3     0  <0>0       -0.3813
     22  H23        1.4290   29.3600   54.0240 H       0  <0>0        0.2107
@<TRIPOS>BOND
     1    18    19   ar
     2    18    17   ar
     3    19    20   ar
     4    17    16   ar
     5    20    15   ar
     6    16    15   ar
     7    15    13    1
     8    22    21    1
     9    21    13    1
    10    13    12    1
    11    13    14    1
    12    12     1    1
    13     2     1    1
    14     1     3    1
    15    11     7   ar
    16    11    10   ar
    17     3     4    1
    18     3     7    1
    19     4     5    1
    20     7     8   ar
    21    10     9   ar
    22     6     5    1
    23     9     8   ar
