@<TRIPOS>MOLECULE
ZINC17143075_replica-1.pdb
 24 25 0 0 0
SMALL
GASTEIGER

@<TRIPOS>ATOM
      1  N2         1.5810   31.4590   56.4690 N.am    0  <0>0       -0.2438
      2  H4         1.4550   30.8640   57.2240 H       0  <0>0        0.1696
      3  N1         0.7000   31.4080   55.3810 N.3     0  <0>0       -0.1292
      4  C2        -0.3320   30.6150   55.4170 C.3     0  <0>0        0.1157
      5  C1        -1.2460   30.6210   56.6150 C.3     0  <0>0        0.0256
      6  C10       -0.5960   29.7440   54.3290 C.2     0  <0>0       -0.0073
      7  C11       -0.3610   28.4220   54.4520 C.2     0  <0>0       -0.0031
      8  C12       -0.6340   27.5180   53.3210 C.ar    0  <0>0       -0.0003
      9  C17       -1.3760   27.9690   52.2260 C.ar    0  <0>0       -0.0000
     10  C16       -1.6270   27.1170   51.1710 C.ar    0  <0>0       -0.0000
     11  C15       -1.1480   25.8200   51.1950 C.ar    0  <0>0       -0.0000
     12  C14       -0.4130   25.3660   52.2760 C.ar    0  <0>0       -0.0000
     13  C13       -0.1480   26.2070   53.3370 C.ar    0  <0>0       -0.0000
     14  C3         2.6070   32.3340   56.4650 C.2     0  <0>0        0.1497
     15  S1         3.7900   32.2730   57.7010 S.2     0  <0>0       -0.0173
     16  N3         2.7020   33.2560   55.4860 N.am    0  <0>0       -0.2949
     17  H5         2.0680   33.2520   54.7520 H       0  <0>0        0.1539
     18  C4         3.7150   34.2200   55.5290 C.ar    0  <0>0        0.0496
     19  C9         4.8490   34.0730   54.7400 C.ar    0  <0>0        0.0155
     20  C8         5.8470   35.0250   54.7830 C.ar    0  <0>0        0.0127
     21  C7         5.7210   36.1260   55.6140 C.ar    0  <0>0        0.0578
     22  C6         4.5930   36.2740   56.4020 C.ar    0  <0>0        0.0127
     23 Cl          6.9790   37.3210   55.6670 Cl      0  <0>0       -0.0822
     24  C5         3.5880   35.3270   56.3560 C.ar    0  <0>0        0.0155
@<TRIPOS>BOND
     1    10    11   ar
     2    10     9   ar
     3    11    12   ar
     4     9     8   ar
     5    12    13   ar
     6     8    13   ar
     7     8     7    1
     8     6     7    2
     9     6     4    1
    10    19    20   ar
    11    19    18   ar
    12    17    16    1
    13    20    21   ar
    14     3     4    1
    15     3     1    1
    16     4     5    1
    17    16    18    1
    18    16    14    1
    19    18    24   ar
    20    21    23    1
    21    21    22   ar
    22    24    22   ar
    23    14     1    1
    24    14    15    2
    25     1     2    1
