@<TRIPOS>MOLECULE
ZINC12404022_replica-1.pdb
 26 29 0 0 0
SMALL
GASTEIGER

@<TRIPOS>ATOM
      1  C3         8.8400   36.4400   58.2170 C.3     0  <0>0        0.0576
      2  C4         8.5850   37.6850   57.3320 C.3     0  <0>0        0.0073
      3  C5         7.0900   37.6290   56.9160 C.3     0  <0>0        0.0005
      4  C6         6.7560   36.1380   57.0380 C.3     0  <0>0        0.0007
      5  C7         7.4820   35.7590   58.3560 C.3     0  <0>0        0.0065
      6  C8         7.4940   34.2430   58.4330 C.3     0  <0>0        0.0004
      7  C9         6.0330   33.7890   58.5660 C.3     0  <0>0        0.0003
      8  C10        5.1720   34.2810   57.4070 C.3     0  <0>0        0.0038
      9  C11        5.2850   35.8050   57.2170 C.3     0  <0>0        0.0046
     10  C12        4.5260   36.1780   55.9380 C.3     0  <0>0        0.0254
     11  C13        3.1250   35.6480   56.0100 C.2     0  <0>0       -0.0345
     12  C14        2.7700   34.6640   56.7740 C.2     0  <0>0       -0.0455
     13  C15        3.7170   33.9150   57.6720 C.3     0  <0>0        0.0151
     14  C16        3.3410   34.1760   59.1280 C.3     0  <0>0        0.0074
     15  C17        1.8450   34.4700   59.2370 C.3     0  <0>0        0.0443
     16  C18        1.0490   33.6650   58.2110 C.3     0  <0>0        0.1728
     17  C19        1.3170   34.2180   56.8040 C.3     0  <0>0        0.0653
     18  C22        3.5450   32.4180   57.4080 C.3     0  <0>0        0.0040
     19  C23        6.7220   36.3340   59.5540 C.3     0  <0>0        0.0004
     20  O2         1.4570   32.2730   58.2690 O.3     0  <0>0       -0.4519
     21  C20        0.4880   31.3610   58.4410 C.2     0  <0>0        0.3174
     22  O3         0.3950   30.7690   59.4900 O.2     0  <0>0       -0.2501
     23  C21       -0.4850   31.0750   57.3260 C.3     0  <0>0        0.1212
     24  C2         9.3560   36.8580   59.5700 C.2     0  <0>0        0.1507
     25  C1        10.1170   35.8750   60.4220 C.3     0  <0>0        0.0722
     26  O1         9.1600   37.9800   59.9720 O.2     0  <0>0       -0.2961
@<TRIPOS>BOND
     1    10    11    1
     2    10     9    1
     3    11    12    2
     4    12    17    1
     5    12    13    1
     6    17    16    1
     7     3     4    1
     8     3     2    1
     9     4     9    1
    10     4     5    1
    11     9     8    1
    12    23    21    1
    13     2     1    1
    14     8    13    1
    15     8     7    1
    16    18    13    1
    17    13    14    1
    18    16    20    1
    19    16    15    1
    20     1     5    1
    21     1    24    1
    22    20    21    1
    23     5     6    1
    24     5    19    1
    25     6     7    1
    26    21    22    2
    27    14    15    1
    28    24    26    2
    29    24    25    1
