@<TRIPOS>MOLECULE
ZINC32188380_replica-1.pdb
 24 25 0 0 0
SMALL
GASTEIGER

@<TRIPOS>ATOM
      1  C11        0.2170   32.3120   56.2080 C.3     0  <0>0        0.1735
      2  C10       -0.4060   31.0190   56.7340 C.3     0  <0>0        0.2361
      3  O1        -1.5380   30.6740   55.9320 O.3     0  <0>0       -0.4728
      4  C7        -1.3350   29.7790   54.9310 C.ar    0  <0>0        0.1387
      5  C6        -2.0100   29.9180   53.7260 C.ar    0  <0>0        0.0366
      6  C5        -1.7970   29.0090   52.7080 C.ar    0  <0>0       -0.0012
      7  C4        -0.9210   27.9550   52.8920 C.ar    0  <0>0       -0.0223
      8  C9        -0.2470   27.8140   54.0910 C.ar    0  <0>0       -0.0012
      9  C8        -0.4520   28.7230   55.1110 C.ar    0  <0>0        0.0366
     10  C2        -0.6960   26.9610   51.7820 C.3     0  <0>0        0.0224
     11  C1        -1.9180   26.9390   50.8610 C.3     0  <0>0        0.0047
     12  C3        -0.4820   25.5680   52.3790 C.3     0  <0>0        0.0047
     13  C12        0.5120   33.2510   57.3800 C.3     0  <0>0        0.1206
     14  N1         1.1990   32.5080   58.4400 N.pl3   0  <0>0       -0.3305
     15  H17        2.0530   31.8620   58.1930 H       0  <0>0        0.1469
     16  C13        0.7670   32.6220   59.7640 C.ar    0  <0>0        0.0470
     17  C18        0.2960   33.8390   60.2400 C.ar    0  <0>0        0.0439
     18  C17       -0.1340   33.9460   61.5500 C.ar    0  <0>0        0.1414
     19  C16       -0.0850   32.8450   62.3890 C.ar    0  <0>0        0.0297
     20  F1        -0.5970   35.1270   62.0140 F       0  <0>0       -0.2041
     21  C15        0.3880   31.6350   61.9170 C.ar    0  <0>0        0.0036
     22  C14        0.8160   31.5200   60.6090 C.ar    0  <0>0        0.0144
     23  O2         1.4350   32.0100   55.5240 O.3     0  <0>0       -0.3791
     24  H22        1.9540   31.0590   55.7170 H       0  <0>0        0.2106
@<TRIPOS>BOND
     1    11    10    1
     2    10    12    1
     3    10     7    1
     4     6     7   ar
     5     6     5   ar
     6     7     8   ar
     7     5     4   ar
     8     8     9   ar
     9     4     9   ar
    10     4     3    1
    11    23    24    1
    12    23     1    1
    13     3     2    1
    14     1     2    1
    15     1    13    1
    16    13    14    1
    17    15    14    1
    18    14    16    1
    19    16    17   ar
    20    16    22   ar
    21    17    18   ar
    22    22    21   ar
    23    18    20    1
    24    18    19   ar
    25    21    19   ar
