@<TRIPOS>MOLECULE
ZINC37383525_replica-1.pdb
 18 19 0 0 0
SMALL
GASTEIGER

@<TRIPOS>ATOM
      1  S2        -1.3100   29.4630   54.2260 S.O2    0  <0>0        0.1027
      2  O1        -1.7930   28.9130   55.4440 O.2     0  <0>0       -0.1462
      3  O2        -1.9810   30.5140   53.5460 O.2     0  <0>0       -0.1462
      4  N2         0.2280   29.9990   54.5270 N.2     0  <0>0       -0.1033
      5  C4         0.4410   30.8800   55.4730 C.ar    0  <0>0        0.1921
      6  S1        -0.7250   31.6610   56.5770 S.2     0  <0>0       -0.0475
      7  N1         1.6260   31.4570   55.8780 N.ar    0  <0>0       -0.3350
      8  C3         0.4350   32.6720   57.4820 C.ar    0  <0>0        0.0509
      9  C2         1.5930   32.3580   56.9020 C.ar    0  <0>0        0.0421
     10  C1         2.8700   33.0040   57.3750 C.3     0  <0>0        0.0504
     11  H9         2.4630   31.2250   55.4480 H       0  <0>0        0.1676
     12  C5        -1.1820   28.1260   53.0860 C.ar    0  <0>0        0.1354
     13  C10       -0.4640   26.9940   53.4240 C.ar    0  <0>0        0.0537
     14  C9        -0.3690   25.9420   52.5310 C.ar    0  <0>0        0.0081
     15 Br          0.3820   26.8800   55.1120 Br      0  <0>0       -0.0476
     16  C8        -0.9820   26.0280   51.2960 C.ar    0  <0>0        0.0006
     17  C7        -1.6970   27.1610   50.9560 C.ar    0  <0>0        0.0014
     18  C6        -1.7960   28.2100   51.8490 C.ar    0  <0>0        0.0210
@<TRIPOS>BOND
     1    17    16   ar
     2    17    18   ar
     3    16    14   ar
     4    18    12   ar
     5    14    13   ar
     6    12    13   ar
     7    12     1    1
     8    13    15    1
     9     3     1    2
    10     1     4    1
    11     1     2    2
    12     4     5    2
    13    11     7    1
    14     5     7   ar
    15     5     6   ar
    16     7     9   ar
    17     6     8   ar
    18     9    10    1
    19     9     8   ar
