@<TRIPOS>MOLECULE
ZINC65515678_replica-1.pdb
 23 23 0 0 0
SMALL
GASTEIGER

@<TRIPOS>ATOM
      1  C6        -1.3580   29.6400   54.3500 C.3     0  <0>0        0.1689
      2  C7         0.1050   29.9950   54.6190 C.3     0  <0>0        0.0453
      3  C8         0.1880   31.4030   55.2140 C.3     0  <0>0        0.0234
      4  C9        -0.6000   31.4490   56.5250 C.3     0  <0>0        0.0750
      5  C10       -2.0630   31.0950   56.2560 C.3     0  <0>0        0.0234
      6  C11       -2.1450   29.6860   55.6610 C.3     0  <0>0        0.0453
      7  N1        -0.5200   32.7980   57.0940 N.am    0  <0>0       -0.2723
      8  C12        0.3500   33.0580   58.0900 C.2     0  <0>0        0.4019
      9  O3         1.0690   32.1760   58.5160 O.2     0  <0>0       -0.2264
     10  H20       -1.0940   33.5020   56.7550 H       0  <0>0        0.1527
     11  O4         0.4230   34.2960   58.6120 O.3     0  <0>0       -0.4253
     12  C13        0.6370   35.3750   57.7000 C.3     0  <0>0        0.3125
     13  C14        2.1040   35.8050   57.7520 C.3     0  <0>0        0.4382
     14  F1         2.9230   34.6710   57.7090 F       0  <0>0       -0.1663
     15  F2         2.3890   36.6270   56.6570 F       0  <0>0       -0.1663
     16  F3         2.3430   36.5080   58.9380 F       0  <0>0       -0.1663
     17  O2        -1.4350   28.3250   53.7950 O.3     0  <0>0       -0.4523
     18  C5        -1.5590   28.2320   52.4620 C.2     0  <0>0        0.3163
     19  O1        -2.2160   29.0470   51.8590 O.2     0  <0>0       -0.2501
     20  C3        -0.8780   27.1140   51.7180 C.3     0  <0>0        0.0991
     21  C4        -1.8870   26.4240   50.7980 C.3     0  <0>0        0.0116
     22  C2        -0.3220   26.0980   52.7180 C.3     0  <0>0        0.0111
     23  C1        -0.4920   24.6850   52.1570 C.3     0  <0>0        0.0006
@<TRIPOS>BOND
     1    21    20    1
     2    20    18    1
     3    20    22    1
     4    19    18    2
     5    23    22    1
     6    18    17    1
     7    17     1    1
     8     1     2    1
     9     1     6    1
    10     2     3    1
    11     3     4    1
    12     6     5    1
    13     5     4    1
    14     4     7    1
    15    15    13    1
    16    10     7    1
    17     7     8   am
    18    12    13    1
    19    12    11    1
    20    14    13    1
    21    13    16    1
    22     8     9    2
    23     8    11    1
