@<TRIPOS>MOLECULE
ZINC67371867_replica-1.pdb
 20 22 0 0 0
SMALL
GASTEIGER

@<TRIPOS>ATOM
      1  C1        -0.5930   24.9590   51.5860 C.3     0  <0>0        0.0308
      2  C2        -0.4840   26.1390   52.5170 C.ar    0  <0>0       -0.0229
      3  C3         0.2810   26.0410   53.6640 C.ar    0  <0>0       -0.0046
      4  C4         0.3780   27.1240   54.5210 C.ar    0  <0>0        0.0001
      5  C5        -0.2850   28.2950   54.2260 C.ar    0  <0>0        0.0333
      6  C6        -1.0500   28.4080   53.0720 C.ar    0  <0>0        0.1319
      7  C7        -1.1420   27.3140   52.2150 C.ar    0  <0>0        0.0079
      8  C8        -1.9680   27.4110   50.9590 C.3     0  <0>0        0.0339
      9  O1        -1.5980   29.6500   52.9630 O.3     0  <0>0       -0.4739
     10  C9        -1.5900   30.2850   54.2530 C.3     0  <0>0        0.2299
     11  C10       -0.3810   29.6220   54.9550 C.3     0  <0>0        0.1472
     12  N1        -0.6510   29.4170   56.3810 N.pl3   0  <0>0       -0.2715
     13  C11       -0.0380   30.2250   57.3230 C.1     0  <0>0        0.0873
     14  N3        -0.2930   30.0260   58.6070 N.2     0  <0>0       -0.2025
     15  N2         0.7850   31.1810   56.9180 N.2     0  <0>0       -0.1802
     16  C14        0.2810   30.7770   59.5350 C.3     0  <0>0        0.1721
     17  C13        1.1470   31.7870   59.1470 C.2     0  <0>0        0.0575
     18  C12        1.3870   31.9710   57.7930 C.2     0  <0>0        0.1151
     19 Br          1.9840   32.8900   60.4350 Br      0  <0>0       -0.0500
     20  H12       -1.2580   28.7170   56.6630 H       0  <0>0        0.1587
@<TRIPOS>BOND
     1     8     7    1
     2     1     2    1
     3     7     2   ar
     4     7     6   ar
     5     2     3   ar
     6     9     6    1
     7     9    10    1
     8     6     5   ar
     9     3     4   ar
    10     5     4   ar
    11     5    11    1
    12    10    11    1
    13    11    12    1
    14    12    20    1
    15    12    13    1
    16    15    13    2
    17    15    18    1
    18    13    14    2
    19    18    17    2
    20    14    16    1
    21    17    16    1
    22    17    19    1
