@<TRIPOS>MOLECULE
ZINC02963654_replica-1.pdb
 26 29 0 0 0
SMALL
GASTEIGER

@<TRIPOS>ATOM
      1  N1         7.3490   35.1970   57.5550 N.am    0  <0>0       -0.2418
      2  C9         7.1930   36.1720   56.6560 C.2     0  <0>0        0.1410
      3  S1         8.1890   37.5610   56.7550 S.2     0  <0>0       -0.0182
      4  N2         6.2780   36.1000   55.6740 N.am    0  <0>0       -0.3133
      5  C10        5.3590   34.9520   55.6140 C.3     0  <0>0        0.1014
      6  C11        6.1460   33.7040   56.0450 C.3     0  <0>0        0.0846
      7  C12        6.6020   33.9440   57.4920 C.3     0  <0>0        0.2013
      8  O1         5.4510   33.9960   58.3310 O.3     0  <0>0       -0.4625
      9  C13        4.3760   34.7180   57.9210 C.ar    0  <0>0        0.1714
     10  C14        4.2640   35.1970   56.6290 C.ar    0  <0>0        0.0327
     11  C15        3.1470   35.9190   56.2480 C.ar    0  <0>0        0.0005
     12  C16        2.1380   36.1720   57.1590 C.ar    0  <0>0        0.0030
     13  C17        2.2430   35.7030   58.4550 C.ar    0  <0>0        0.0400
     14  C18        3.3570   34.9770   58.8390 C.ar    0  <0>0        0.1722
     15  C20        7.5040   32.7920   57.9380 C.3     0  <0>0        0.0659
     16  H11        6.2240   36.8030   55.0060 H       0  <0>0        0.1487
     17  C6         8.2690   35.3870   58.5920 C.ar    0  <0>0        0.0515
     18  C5         9.5410   34.8370   58.5040 C.ar    0  <0>0        0.0146
     19  C4        10.4480   35.0320   59.5270 C.ar    0  <0>0        0.0009
     20  C3        10.0860   35.7620   60.6440 C.ar    0  <0>0       -0.0045
     21  C2         8.8180   36.3050   60.7380 C.ar    0  <0>0       -0.0246
     22  C1         8.4290   37.1010   61.9580 C.3     0  <0>0        0.0307
     23  C7         7.9080   36.1200   59.7160 C.ar    0  <0>0       -0.0120
     24  C8         6.5270   36.7120   59.8190 C.3     0  <0>0        0.0320
     25  O2         3.4600   34.5150   60.1150 O.3     0  <0>0       -0.4684
     26  C19        2.5900   33.4440   60.4880 C.3     0  <0>0        0.2526
@<TRIPOS>BOND
     1    16     4    1
     2     5     4    1
     3     5     6    1
     4     5    10    1
     5     4     2    1
     6     6     7    1
     7    11    10   ar
     8    11    12   ar
     9    10     9   ar
    10     2     3    2
    11     2     1    1
    12    12    13   ar
    13     7     1    1
    14     7    15    1
    15     7     8    1
    16     1    17    1
    17     9     8    1
    18     9    14   ar
    19    13    14   ar
    20    18    17   ar
    21    18    19   ar
    22    17    23   ar
    23    14    25    1
    24    19    20   ar
    25    23    24    1
    26    23    21   ar
    27    25    26    1
    28    20    21   ar
    29    21    22    1
