@<TRIPOS>MOLECULE
ZINC00345400_replica-1.pdb
 26 27 0 0 0
SMALL
GASTEIGER

@<TRIPOS>ATOM
      1  C9         1.4330   30.8910   59.1080 C.2     0  <0>0        0.2856
      2  O2         2.4790   30.6270   58.5540 O.2     0  <0>0       -0.2693
      3  N1         0.2610   30.6320   58.4970 N.am    0  <0>0       -0.2031
      4  H9        -0.5760   30.8420   58.9400 H       0  <0>0        0.1774
      5  N2         0.2500   30.0560   57.2190 N.2     0  <0>0       -0.1835
      6  C10       -0.5790   29.0940   56.9470 C.2     0  <0>0        0.0766
      7  C11       -1.5280   28.5980   58.0050 C.3     0  <0>0        0.0537
      8  C12       -0.5890   28.4880   55.6020 C.ar    0  <0>0        0.0150
      9  C17        0.1280   27.3150   55.3560 C.ar    0  <0>0        0.0009
     10  C16        0.1150   26.7540   54.0960 C.ar    0  <0>0       -0.0042
     11  C15       -0.6080   27.3500   53.0780 C.ar    0  <0>0       -0.0225
     12  C14       -1.3210   28.5120   53.3150 C.ar    0  <0>0       -0.0042
     13  C13       -1.3210   29.0810   54.5720 C.ar    0  <0>0        0.0009
     14  C18       -0.6180   26.7320   51.7040 C.3     0  <0>0        0.0224
     15  C19       -0.7340   25.2110   51.8290 C.3     0  <0>0        0.0047
     16  C20       -1.8100   27.2700   50.9110 C.3     0  <0>0        0.0047
     17  C8         1.4440   31.5100   60.4820 C.3     0  <0>0        0.2911
     18  O1         0.7930   32.7820   60.4360 O.3     0  <0>0       -0.4656
     19  C6         1.3740   33.7470   59.6770 C.ar    0  <0>0        0.1387
     20  C5         0.6550   34.3580   58.6600 C.ar    0  <0>0        0.0326
     21  C4         1.2500   35.3380   57.8890 C.ar    0  <0>0       -0.0192
     22  C3         2.5590   35.7110   58.1300 C.ar    0  <0>0       -0.0083
     23  C21        0.4690   36.0030   56.7840 C.3     0  <0>0        0.0311
     24  C2         3.2770   35.1040   59.1430 C.ar    0  <0>0       -0.0192
     25  C1         4.7060   35.5070   59.4000 C.3     0  <0>0        0.0311
     26  C7         2.6890   34.1220   59.9170 C.ar    0  <0>0        0.0326
@<TRIPOS>BOND
     1    16    14    1
     2    14    15    1
     3    14    11    1
     4    11    12   ar
     5    11    10   ar
     6    12    13   ar
     7    10     9   ar
     8    13     8   ar
     9     9     8   ar
    10     8     6    1
    11    23    21    1
    12     6     5    2
    13     6     7    1
    14     5     3    1
    15    21    22   ar
    16    21    20   ar
    17    22    24   ar
    18     3     4    1
    19     3     1   am
    20     2     1    2
    21    20    19   ar
    22     1    17    1
    23    24    25    1
    24    24    26   ar
    25    19    26   ar
    26    19    18    1
    27    18    17    1
