@<TRIPOS>MOLECULE
ZINC06143841_replica-1.pdb
 27 31 0 0 0
SMALL
GASTEIGER

@<TRIPOS>ATOM
      1  C10       -0.3120   30.1350   55.5550 C.2     0  <0>0        0.1378
      2  C11       -0.2000   31.4840   55.4560 C.3     0  <0>0        0.1575
      3  N1         0.1540   31.9690   56.7090 N.pl3   0  <0>0       -0.2492
      4  C12        0.4220   33.1850   57.3010 C.2     0  <0>0        0.0707
      5  C13        0.7430   33.2620   58.5900 C.2     0  <0>0        0.0301
      6  S1         0.6890   31.5460   59.0860 S.3     0  <0>0       -0.0425
      7  C14        0.2360   30.8600   57.5100 C.2     0  <0>0        0.2181
      8  N2        -0.0440   29.7860   56.8300 N.2     0  <0>0       -0.3826
      9  C8        -0.6740   29.2090   54.4560 C.ar    0  <0>0        0.1032
     10  C7        -0.0230   28.0110   54.2890 C.ar    0  <0>0        0.0118
     11  C5        -0.4510   27.1610   53.1740 C.ar    0  <0>0        0.0350
     12  C4        -1.2890   27.6990   52.1800 C.ar    0  <0>0        0.1487
     13  C6        -0.0390   25.8260   53.0880 C.ar    0  <0>0        0.0030
     14  C3        -1.7030   26.8960   51.1270 C.ar    0  <0>0        0.0376
     15  O2        -1.6820   28.9930   52.2610 O.2     0  <0>0       -0.4210
     16  C2        -1.2870   25.5820   51.0630 C.ar    0  <0>0        0.0031
     17  C1        -0.4570   25.0540   52.0420 C.ar    0  <0>0        0.0002
     18  C9        -1.7450   29.5370   53.4980 C.ar    0  <0>0        0.3479
     19  O1        -2.6600   30.2750   53.8120 O.2     0  <0>0       -0.2444
     20  C15        1.0690   34.4780   59.4180 C.3     0  <0>0        0.0606
     21  C16        2.5440   34.7660   59.3290 C.ar    0  <0>0       -0.0172
     22  C21        3.0100   35.7200   58.4430 C.ar    0  <0>0       -0.0034
     23  C20        4.3640   35.9880   58.3640 C.ar    0  <0>0        0.0064
     24  C19        5.2540   35.2940   59.1640 C.ar    0  <0>0        0.0345
     25  C18        4.7880   34.3360   60.0460 C.ar    0  <0>0        0.0064
     26 Br          7.1070   35.6560   59.0530 Br      0  <0>0       -0.0490
     27  C17        3.4340   34.0720   60.1280 C.ar    0  <0>0       -0.0034
@<TRIPOS>BOND
     1    16    14   ar
     2    16    17   ar
     3    14    12   ar
     4    17    13   ar
     5    12    15   ar
     6    12    11   ar
     7    15    18   ar
     8    13    11   ar
     9    11    10   ar
    10    18    19    2
    11    18     9   ar
    12    10     9   ar
    13     9     1    1
    14     2     1    1
    15     2     3    1
    16     1     8    2
    17     3     4    1
    18     3     7    1
    19     8     7    2
    20     4     5    2
    21     7     6    1
    22    23    22   ar
    23    23    24   ar
    24    22    21   ar
    25     5     6    1
    26     5    20    1
    27    26    24    1
    28    24    25   ar
    29    21    20    1
    30    21    27   ar
    31    25    27   ar
