@<TRIPOS>MOLECULE
ZINC06387494_replica-1.pdb
 25 27 0 0 0
SMALL
GASTEIGER

@<TRIPOS>ATOM
      1  C3        -1.6420   30.0610   54.3480 C.3     0  <0>0        0.3170
      2  C4        -0.4400   29.4830   55.0530 C.2     0  <0>0        0.1007
      3  C5         0.1270   30.1330   56.0940 C.2     0  <0>0        0.0669
      4  C12        0.0810   28.2400   54.6040 C.2     0  <0>0        0.2016
      5  O2         0.9780   27.6740   55.2060 O.2     0  <0>0       -0.2865
      6  C13       -0.5090   27.6600   53.3770 C.ar    0  <0>0        0.0726
      7  C14       -0.2310   26.3500   52.9960 C.ar    0  <0>0        0.0020
      8  C15       -0.8100   25.8360   51.8540 C.ar    0  <0>0       -0.0216
      9  C16       -1.6630   26.6170   51.0920 C.ar    0  <0>0       -0.0011
     10  C17       -1.9400   27.9190   51.4580 C.ar    0  <0>0        0.0368
     11  C18       -1.3600   28.4550   52.5990 C.ar    0  <0>0        0.1446
     12  O3        -1.6020   29.7390   52.9570 O.3     0  <0>0       -0.4489
     13  C19       -0.5130   24.4190   51.4340 C.3     0  <0>0        0.0310
     14  O1        -2.8330   29.5240   54.9280 O.3     0  <0>0       -0.3170
     15  C2        -2.8910   29.6410   56.3510 C.3     0  <0>0        0.1463
     16  C1        -2.9880   28.2460   56.9740 C.3     0  <0>0        0.0348
     17  N1        -0.3850   31.3290   56.5130 N.pl3   0  <0>0       -0.3116
     18  H8        -1.4740   31.4810   56.5400 H       0  <0>0        0.1522
     19  C6         0.4750   32.3560   56.9100 C.ar    0  <0>0        0.0484
     20  C11        1.7500   32.4470   56.3650 C.ar    0  <0>0        0.0151
     21  C10        2.5970   33.4630   56.7580 C.ar    0  <0>0        0.0080
     22  C9         2.1750   34.3950   57.6890 C.ar    0  <0>0        0.0346
     23  C8         0.9090   34.3060   58.2380 C.ar    0  <0>0        0.0080
     24 Br          3.3360   35.7920   58.2190 Br      0  <0>0       -0.0490
     25  C7         0.0570   33.2910   57.8490 C.ar    0  <0>0        0.0151
@<TRIPOS>BOND
     1     9    10   ar
     2     9     8   ar
     3    13     8    1
     4    10    11   ar
     5     8     7   ar
     6    11    12    1
     7    11     6   ar
     8    12     1    1
     9     7     6   ar
    10     6     4    1
    11     1    14    1
    12     1     2    1
    13     4     2    1
    14     4     5    2
    15    14    15    1
    16     2     3    2
    17     3    17    1
    18    15    16    1
    19    20    21   ar
    20    20    19   ar
    21    17    18    1
    22    17    19    1
    23    21    22   ar
    24    19    25   ar
    25    22    24    1
    26    22    23   ar
    27    25    23   ar
