@<TRIPOS>MOLECULE
ZINC43191503_replica-1.pdb
 26 29 0 0 0
SMALL
GASTEIGER

@<TRIPOS>ATOM
      1  C3        11.3810   33.9920   62.0160 C.3     0  <0>0        0.0576
      2  C4        10.9900   32.6990   62.0370 C.3     0  <0>0        0.0073
      3  C5         9.6850   32.5440   61.2570 C.3     0  <0>0        0.0004
      4  C6         9.0820   33.9520   61.3680 C.3     0  <0>0        0.0004
      5  C7        10.3940   34.7710   61.2130 C.3     0  <0>0        0.0065
      6  C8        10.0850   36.1970   61.6050 C.3     0  <0>0        0.0004
      7  C9         9.0780   36.7400   60.5750 C.3     0  <0>0        0.0000
      8  C10        7.8280   35.8710   60.4980 C.3     0  <0>0        0.0000
      9  C11        8.1560   34.3850   60.2490 C.3     0  <0>0        0.0000
     10  C12        6.8650   33.5670   60.2770 C.3     0  <0>0        0.0000
     11  C13        5.9320   34.0540   59.1650 C.3     0  <0>0        0.0001
     12  C14        5.6030   35.5300   59.3850 C.3     0  <0>0        0.0036
     13  C15        6.9150   36.3710   59.3770 C.3     0  <0>0        0.0002
     14  C16        7.6320   36.2290   58.0340 C.3     0  <0>0        0.0037
     15  C17        6.7200   36.7320   56.9140 C.3     0  <0>0        0.0436
     16  C18        5.4340   35.9040   56.8940 C.3     0  <0>0        0.1688
     17  C19        4.6760   36.0190   58.2690 C.3     0  <0>0        0.0436
     18  C22        6.5750   37.8430   59.6170 C.3     0  <0>0        0.0000
     19  C23       10.8170   34.7530   59.7430 C.3     0  <0>0        0.0004
     20  O2         4.5820   36.3710   55.8470 O.3     0  <0>0       -0.4523
     21  C20        3.9100   35.4430   55.1470 C.2     0  <0>0        0.3174
     22  O3         2.7890   35.1330   55.4770 O.2     0  <0>0       -0.2501
     23  C21        4.5530   34.7860   53.9530 C.3     0  <0>0        0.1212
     24  C2        12.5690   34.5360   62.6730 C.2     0  <0>0        0.1507
     25  C1        13.9420   34.1850   62.1580 C.3     0  <0>0        0.0722
     26  O1        12.4510   35.2710   63.6300 O.2     0  <0>0       -0.2961
@<TRIPOS>BOND
     1    23    21    1
     2    21    22    2
     3    21    20    1
     4    20    16    1
     5    16    15    1
     6    16    17    1
     7    15    14    1
     8    14    13    1
     9    17    12    1
    10    11    12    1
    11    11    10    1
    12    13    12    1
    13    13    18    1
    14    13     8    1
    15    19     5    1
    16     9    10    1
    17     9     8    1
    18     9     4    1
    19     8     7    1
    20     7     6    1
    21     5     4    1
    22     5     6    1
    23     5     1    1
    24     3     4    1
    25     3     2    1
    26     1     2    1
    27     1    24    1
    28    25    24    1
    29    24    26    2
