@<TRIPOS>MOLECULE
ZINC08495323_replica-1.pdb
 31 33 0 0 0
SMALL
GASTEIGER

@<TRIPOS>ATOM
      1  C2        10.5780   34.1590   61.5110 C.ar    0  <0>0        0.1720
      2  C3        11.5720   34.6690   62.3310 C.ar    0  <0>0        0.0400
      3  C4        11.6940   36.0350   62.5020 C.ar    0  <0>0        0.0029
      4  C5        10.8260   36.8960   61.8560 C.ar    0  <0>0       -0.0032
      5  C6         9.8360   36.3940   61.0310 C.ar    0  <0>0       -0.0066
      6  C7         9.7050   35.0260   60.8600 C.ar    0  <0>0        0.1666
      7  C15        8.8960   37.3350   60.3230 C.3     0  <0>0       -0.0506
      8  N1         7.5900   37.3200   61.0090 N.4     0  <0>0        0.3892
      9  H21        7.5910   38.0280   61.7540 H       0  <0>0       -0.0835
     10  H22        7.4330   36.3920   61.4190 H       0  <0>0       -0.0835
     11  C16        6.5060   37.6200   60.0540 C.3     0  <0>0       -0.0538
     12  C17        5.5970   36.4230   59.9490 C.ar    0  <0>0       -0.0437
     13  C22        5.8310   35.3090   60.7340 C.ar    0  <0>0       -0.0061
     14  C21        5.0010   34.2100   60.6440 C.ar    0  <0>0        0.0062
     15  C20        3.9230   34.2250   59.7580 C.ar    0  <0>0        0.0798
     16  C19        3.6910   35.3540   58.9680 C.ar    0  <0>0        0.0062
     17  C18        4.5260   36.4470   59.0720 C.ar    0  <0>0       -0.0061
     18  C23        3.0300   33.0540   59.6550 C.2     0  <0>0        0.3878
     19  O3         3.2080   32.2290   58.7810 O.co2   0  <0>0       -0.2406
     20  O4         2.0170   32.8980   60.5300 O.co2   0  <0>0       -0.2406
     21  O2         8.7280   34.5300   60.0550 O.3     0  <0>0       -0.4680
     22  C8         9.1110   34.1420   58.7330 C.3     0  <0>0        0.2321
     23  C9         7.9810   34.4290   57.7780 C.ar    0  <0>0        0.0212
     24  C14        7.9060   35.6560   57.1460 C.ar    0  <0>0        0.0002
     25  C13        6.8700   35.9200   56.2690 C.ar    0  <0>0        0.0112
     26  C12        5.9080   34.9560   56.0260 C.ar    0  <0>0        0.0577
     27  C11        5.9840   33.7290   56.6590 C.ar    0  <0>0        0.0112
     28 Cl          4.6060   35.2870   54.9260 Cl      0  <0>0       -0.0822
     29  C10        7.0240   33.4630   57.5310 C.ar    0  <0>0        0.0002
     30  O1        10.4560   32.8150   61.3420 O.3     0  <0>0       -0.4684
     31  C1        10.7010   31.9930   62.4860 C.3     0  <0>0        0.2526
@<TRIPOS>BOND
     1    28    26    1
     2    26    25   ar
     3    26    27   ar
     4    25    24   ar
     5    27    29   ar
     6    24    23   ar
     7    29    23   ar
     8    23    22    1
     9    22    21    1
    10    19    18   ar
    11    16    17   ar
    12    16    15   ar
    13    17    12   ar
    14    18    15    1
    15    18    20   ar
    16    15    14   ar
    17    12    11    1
    18    12    13   ar
    19    11     8    1
    20    21     6    1
    21     7     8    1
    22     7     5    1
    23    14    13   ar
    24     6     5   ar
    25     6     1   ar
    26     8    10    1
    27     8     9    1
    28     5     4   ar
    29    30     1    1
    30    30    31    1
    31     1     2   ar
    32     4     3   ar
    33     2     3   ar
