@<TRIPOS>MOLECULE
ZINC11790339_replica-1.pdb
 31 35 0 0 0
SMALL
GASTEIGER

@<TRIPOS>ATOM
      1  C10       10.0530   35.1820   60.0260 C.ar    0  <0>0        0.0036
      2  C11        9.7280   34.7430   58.7430 C.ar    0  <0>0       -0.0010
      3  C12        9.0450   35.5750   57.8860 C.ar    0  <0>0        0.0177
      4  C13        8.6650   36.8520   58.2820 C.ar    0  <0>0        0.1618
      5  C14        8.9950   37.2900   59.5660 C.ar    0  <0>0        0.1735
      6  C15        9.6820   36.4640   60.4280 C.ar    0  <0>0        0.0328
      7  F1         8.6400   38.5310   59.9630 F       0  <0>0       -0.2010
      8  O1         7.9830   37.4920   57.2920 O.3     0  <0>0       -0.4751
      9  C16        8.2550   36.8460   56.0360 C.3     0  <0>0        0.1899
     10  C17        8.5650   35.3910   56.4590 C.3     0  <0>0        0.0748
     11  C18        7.0270   36.8960   55.1250 C.3     0  <0>0        0.1336
     12  N2         5.8140   36.9600   55.9420 N.am    0  <0>0       -0.3008
     13  C19        4.9890   35.8960   56.0120 C.2     0  <0>0        0.2270
     14  O2         5.2530   34.8850   55.3970 O.2     0  <0>0       -0.2747
     15  H14        5.6030   37.7690   56.4350 H       0  <0>0        0.1496
     16  C20        3.7410   35.9630   56.8530 C.3     0  <0>0        0.1118
     17  C21        3.9960   35.3010   58.1830 C.ar    0  <0>0       -0.0061
     18  C24        3.1840   34.3110   58.6260 C.ar    0  <0>0        0.0317
     19  S1         3.9220   33.9040   60.1990 S.2     0  <0>0       -0.0863
     20  C23        5.2630   35.0810   60.1610 C.ar    0  <0>0        0.0351
     21  C22        5.0660   35.6920   58.9670 C.ar    0  <0>0        0.0037
     22  C8        10.7900   34.2910   60.9560 C.ar    0  <0>0        0.0192
     23  C7        12.0990   34.5800   61.3110 C.ar    0  <0>0        0.0030
     24  C5        12.7490   33.7070   62.1990 C.ar    0  <0>0        0.0177
     25  C4        12.0540   32.5700   62.6830 C.ar    0  <0>0        0.0813
     26  C6        14.0740   33.9350   62.6070 C.ar    0  <0>0        0.0015
     27  C3        12.7090   31.6950   63.5670 C.ar    0  <0>0        0.0191
     28  N1        10.7930   32.3420   62.3000 N.ar    0  <0>0       -0.2438
     29  C2        13.9920   31.9470   63.9420 C.ar    0  <0>0        0.0015
     30  C1        14.6750   33.0650   63.4640 C.ar    0  <0>0        0.0001
     31  C9        10.1680   33.1460   61.4790 C.ar    0  <0>0        0.0988
@<TRIPOS>BOND
     1    11    12    1
     2    11     9    1
     3    14    13    2
     4    12    13   am
     5    12    15    1
     6    13    16    1
     7     9    10    1
     8     9     8    1
     9    10     3    1
    10    16    17    1
    11     8     4    1
    12     3     4   ar
    13     3     2   ar
    14    17    18   ar
    15    17    21   ar
    16     4     5   ar
    17    18    19   ar
    18     2     1   ar
    19    21    20   ar
    20     5     7    1
    21     5     6   ar
    22     1     6   ar
    23     1    22    1
    24    20    19   ar
    25    22    23   ar
    26    22    31   ar
    27    23    24   ar
    28    31    28   ar
    29    24    26   ar
    30    24    25   ar
    31    28    25   ar
    32    26    30   ar
    33    25    27   ar
    34    30    29   ar
    35    27    29   ar
