@<TRIPOS>MOLECULE
ZINC58986709_replica-1.pdb
 25 27 0 0 0
SMALL
GASTEIGER

@<TRIPOS>ATOM
      1  C9        -0.7530   29.2510   57.8610 C.ar    0  <0>0        0.1609
      2  N1         0.2640   29.7530   57.1870 N.ar    0  <0>0       -0.1331
      3  N2         0.1990   29.8400   55.8160 N.ar    0  <0>0       -0.1249
      4  C10       -0.8790   29.4230   55.1820 C.ar    0  <0>0        0.1865
      5  S2        -1.8900   28.8590   56.5410 S.2     0  <0>0       -0.0242
      6  S1        -0.9370   29.0240   59.5990 S.3     0  <0>0       -0.0817
      7  C8         0.6280   29.6250   60.2890 C.3     0  <0>0        0.0934
      8  C7         0.4150   30.9790   60.9140 C.ar    0  <0>0        0.0232
      9  C2        -0.0460   31.0760   62.2230 C.ar    0  <0>0        0.1355
     10  C3        -0.2400   32.3230   62.8060 C.ar    0  <0>0        0.0367
     11  C4         0.0190   33.4620   62.0970 C.ar    0  <0>0        0.0064
     12  C5         0.4780   33.3770   60.7770 C.ar    0  <0>0        0.0421
     13  C6         0.6730   32.1210   60.1890 C.ar    0  <0>0        0.0029
     14  O1        -0.3050   29.9500   62.9330 O.3     0  <0>0       -0.4717
     15  C1        -1.5680   29.8770   63.5970 C.3     0  <0>0        0.2525
     16  C17        0.7560   34.5990   60.0120 C.2     0  <0>0        0.2341
     17  O2         0.5560   34.6240   58.8160 O.2     0  <0>0       -0.2831
     18  N3        -1.1530   29.4180   53.8180 N.pl3   0  <0>0       -0.2913
     19  H9        -1.4200   30.2390   53.3750 H       0  <0>0        0.1541
     20  C11       -1.0450   28.2320   53.0870 C.ar    0  <0>0        0.0498
     21  C16       -0.3080   27.1680   53.5920 C.ar    0  <0>0        0.0147
     22  C15       -0.2070   25.9960   52.8680 C.ar    0  <0>0        0.0013
     23  C14       -0.8310   25.8840   51.6390 C.ar    0  <0>0        0.0001
     24  C13       -1.5610   26.9430   51.1320 C.ar    0  <0>0        0.0013
     25  C12       -1.6700   28.1170   51.8520 C.ar    0  <0>0        0.0147
@<TRIPOS>BOND
     1    24    23   ar
     2    24    25   ar
     3    23    22   ar
     4    25    20   ar
     5    22    21   ar
     6    20    21   ar
     7    20    18    1
     8    19    18    1
     9    18     4    1
    10     4     3   ar
    11     4     5   ar
    12     3     2   ar
    13     5     1   ar
    14     2     1   ar
    15     1     6    1
    16    17    16    2
    17     6     7    1
    18    16    12    1
    19    13    12   ar
    20    13     8   ar
    21     7     8    1
    22    12    11   ar
    23     8     9   ar
    24    11    10   ar
    25     9    10   ar
    26     9    14    1
    27    14    15    1
