@<TRIPOS>MOLECULE
ZINC03892465_replica-1.pdb
 25 27 0 0 0
SMALL
GASTEIGER

@<TRIPOS>ATOM
      1  C5        -0.6660   30.9190   56.3390 C.ar    0  <0>0        0.1446
      2  C6        -1.4650   31.1240   55.2240 C.ar    0  <0>0        0.0747
      3  C7        -1.5360   30.1590   54.2340 C.ar    0  <0>0        0.1543
      4  C8        -0.7950   28.9730   54.3630 C.ar    0  <0>0        0.0647
      5  C9         0.0140   28.7720   55.4970 C.ar    0  <0>0        0.1441
      6  C10        0.0700   29.7470   56.4740 C.ar    0  <0>0        0.0739
      7  C15       -0.8640   27.9800   53.3460 C.ar    0  <0>0       -0.0141
      8  C16       -1.6540   28.2010   52.2730 C.ar    0  <0>0        0.0500
      9  C17       -2.3820   29.4130   52.1830 C.ar    0  <0>0        0.3414
     10  O3        -3.0890   29.6110   51.2120 O.2     0  <0>0       -0.2448
     11  O4        -2.3110   30.3470   53.1430 O.2     0  <0>0       -0.4211
     12  C18       -1.8020   27.2070   51.1520 C.3     0  <0>0        0.0326
     13  C19       -0.6600   26.1940   51.1760 C.3     0  <0>0        0.0052
     14  C20       -0.5510   25.6230   52.5950 C.3     0  <0>0        0.0050
     15  C21       -0.0450   26.7290   53.5180 C.3     0  <0>0        0.0265
     16  O1        -0.6020   31.8690   57.3050 O.3     0  <0>0       -0.4753
     17  C4         0.4880   32.7900   57.2380 C.3     0  <0>0        0.2054
     18  C3         0.2750   33.9080   58.2610 C.3     0  <0>0        0.0473
     19  C2         0.5950   33.3850   59.6630 C.3     0  <0>0        0.0038
     20  C1         1.9640   33.9090   60.1020 C.3     0  <0>0        0.0001
     21  O2         0.7340   27.6300   55.6300 O.3     0  <0>0       -0.4753
     22  C11        0.8130   27.0600   56.9380 C.3     0  <0>0        0.2054
     23  C12        0.2030   25.6560   56.9200 C.3     0  <0>0        0.0473
     24  C13       -0.8090   25.5260   58.0600 C.3     0  <0>0        0.0038
     25  C14       -1.6310   26.8130   58.1610 C.3     0  <0>0        0.0001
@<TRIPOS>BOND
     1    12    13    1
     2    12     8    1
     3    13    14    1
     4    10     9    2
     5     9     8   ar
     6     9    11   ar
     7     8     7   ar
     8    14    15    1
     9    11     3   ar
    10     7    15    1
    11     7     4   ar
    12     3     4   ar
    13     3     2   ar
    14     4     5   ar
    15     2     1   ar
    16     5    21    1
    17     5     6   ar
    18    21    22    1
    19     1     6   ar
    20     1    16    1
    21    23    22    1
    22    23    24    1
    23    17    16    1
    24    17    18    1
    25    24    25    1
    26    18    19    1
    27    19    20    1
