@<TRIPOS>MOLECULE
ZINC32906733_replica-1.pdb
 25 27 0 0 0
SMALL
GASTEIGER

@<TRIPOS>ATOM
      1  N1         0.6720   30.0820   55.1740 N.3     0  <0>0       -0.2928
      2  H13        1.4420   29.6490   55.8300 H       0  <0>0        0.1236
      3  C2        -0.5920   29.3560   55.3580 C.3     0  <0>0        0.0769
      4  C1        -1.4740   30.1140   56.3520 C.3     0  <0>0        0.0220
      5  C3        -1.3050   29.2450   54.0360 C.ar    0  <0>0       -0.0080
      6  C8        -1.1140   28.1150   53.2230 C.ar    0  <0>0       -0.0027
      7  C7        -1.7940   28.0290   51.9820 C.ar    0  <0>0       -0.0003
      8  C9        -0.2610   27.0690   53.6160 C.ar    0  <0>0       -0.0003
      9  C6        -2.6440   29.0750   51.5890 C.ar    0  <0>0       -0.0000
     10  C12       -1.6010   26.8990   51.1680 C.ar    0  <0>0       -0.0000
     11  C5        -2.8050   30.1550   52.4020 C.ar    0  <0>0       -0.0003
     12  C4        -2.1380   30.2400   53.6220 C.ar    0  <0>0       -0.0030
     13  C11       -0.7650   25.9080   51.5790 C.ar    0  <0>0       -0.0000
     14  C10       -0.1010   25.9900   52.8020 C.ar    0  <0>0       -0.0000
     15  C13        0.5170   31.5030   55.5070 C.3     0  <0>0        0.1030
     16  C14        1.7360   31.9790   56.2990 C.3     0  <0>0        0.1484
     17  C15        1.2980   32.4460   57.6640 C.ar    0  <0>0        0.0056
     18  C20        1.4860   31.6330   58.7650 C.ar    0  <0>0       -0.0010
     19  C19        1.0840   32.0600   60.0170 C.ar    0  <0>0        0.0111
     20  C18        0.4950   33.3030   60.1670 C.ar    0  <0>0        0.0577
     21  C17        0.3070   34.1170   59.0630 C.ar    0  <0>0        0.0111
     22 Cl         -0.0090   33.8420   61.7390 Cl      0  <0>0       -0.0822
     23  C16        0.7140   33.6900   57.8130 C.ar    0  <0>0       -0.0010
     24  O1         2.3630   33.0590   55.6050 O.3     0  <0>0       -0.3786
     25  H20        3.1620   33.6370   56.0920 H       0  <0>0        0.2108
@<TRIPOS>BOND
     1    10    13   ar
     2    10     7   ar
     3    13    14   ar
     4     9     7   ar
     5     9    11   ar
     6     7     6   ar
     7    11    12   ar
     8    14     8   ar
     9     6     8   ar
    10     6     5   ar
    11    12     5   ar
    12     5     3    1
    13     1     3    1
    14     1    15    1
    15     1     2    1
    16     3     4    1
    17    15    16    1
    18    24    25    1
    19    24    16    1
    20    16    17    1
    21    17    23   ar
    22    17    18   ar
    23    23    21   ar
    24    18    19   ar
    25    21    20   ar
    26    19    20   ar
    27    20    22    1
