@<TRIPOS>MOLECULE
ZINC44192443_replica-1.pdb
 20 20 0 0 0
SMALL
GASTEIGER

@<TRIPOS>ATOM
      1  C1         4.3980   35.0810   57.2320 C.3     0  <0>0        0.0000
      2  C2         3.8690   36.0420   58.2990 C.3     0  <0>0        0.0000
      3  C3         4.6950   35.8910   59.5770 C.3     0  <0>0        0.0000
      4  C4         5.2170   37.2620   60.0130 C.3     0  <0>0        0.0001
      5  C5         6.7340   37.1940   60.2000 C.3     0  <0>0        0.0026
      6  C6         7.3990   38.2990   59.3780 C.3     0  <0>0        0.0321
      7  C7         8.4750   37.6890   58.4780 C.3     0  <0>0        0.1422
      8  C8         8.2330   38.1180   57.0300 C.3     0  <0>0        0.1375
      9  C9         8.1780   36.8800   56.1330 C.3     0  <0>0        0.0318
     10  C10        6.8850   36.8990   55.3160 C.3     0  <0>0        0.0026
     11  C11        6.1390   35.5750   55.5100 C.3     0  <0>0        0.0001
     12  C12        4.7020   35.8600   55.9510 C.3     0  <0>0        0.0000
     13  O2         8.4190   36.2630   58.5680 O.3     0  <0>0       -0.3457
     14  C13        9.6970   35.6390   58.7120 C.3     0  <0>0        0.2458
     15  C14       10.0520   35.5430   60.1970 C.3     0  <0>0        0.4248
     16  F1        10.3310   36.8200   60.6940 F       0  <0>0       -0.1674
     17  F2         8.9730   34.9950   60.9000 F       0  <0>0       -0.1674
     18  F3        11.1760   34.7240   60.3550 F       0  <0>0       -0.1674
     19  O1         9.2970   38.9700   56.6010 O.3     0  <0>0       -0.3820
     20  H23        9.0330   39.8900   56.4620 H       0  <0>0        0.2104
@<TRIPOS>BOND
     1    10    11    1
     2    10     9    1
     3    11    12    1
     4    12     1    1
     5     9     8    1
     6    20    19    1
     7    19     8    1
     8     8     7    1
     9     1     2    1
    10     2     3    1
    11     7    13    1
    12     7     6    1
    13    13    14    1
    14    14    15    1
    15     6     5    1
    16     3     4    1
    17     4     5    1
    18    15    18    1
    19    15    16    1
    20    15    17    1
