@<TRIPOS>MOLECULE
ZINC37121477_replica-1.pdb
 20 21 0 0 0
SMALL
GASTEIGER

@<TRIPOS>ATOM
      1  C7        10.6270   33.5330   61.6830 C.3     0  <0>0        0.1144
      2  C3        11.8070   32.9510   62.4190 C.ar    0  <0>0       -0.0010
      3  C2        13.0200   33.6120   62.4120 C.ar    0  <0>0       -0.0025
      4  C1        14.1020   33.0790   63.0880 C.ar    0  <0>0        0.0014
      5  C6        13.9690   31.8850   63.7710 C.ar    0  <0>0        0.0241
      6  C5        12.7550   31.2230   63.7780 C.ar    0  <0>0        0.1426
      7  C4        11.6740   31.7560   63.1030 C.ar    0  <0>0        0.0215
      8  N1        12.6130   29.9450   64.5100 N.pl3   0  <0>0        0.0577
      9  O1        12.9870   29.8600   65.6560 O.2     0  <0>0       -0.1261
     10  O2        12.1240   28.9840   63.9610 O.2     0  <0>0       -0.1261
     11  N2        11.1040   34.3520   60.5660 N.pl3   0  <0>0       -0.3287
     12  H7        11.9910   34.2050   60.2010 H       0  <0>0        0.1471
     13  C8        10.2820   35.3450   60.0270 C.ar    0  <0>0        0.0516
     14  C13       10.0660   36.5250   60.7260 C.ar    0  <0>0        0.0477
     15  C12        9.2570   37.5080   60.1870 C.ar    0  <0>0        0.0084
     16 Br         10.8840   36.7920   62.4110 Br      0  <0>0       -0.0477
     17  C11        8.6540   37.3130   58.9590 C.ar    0  <0>0        0.0073
     18  C10        8.8620   36.1350   58.2630 C.ar    0  <0>0        0.0358
     19  C9         9.6750   35.1510   58.7930 C.ar    0  <0>0        0.0215
     20 Br          8.0350   35.8730   56.5820 Br      0  <0>0       -0.0490
@<TRIPOS>BOND
     1    20    18    1
     2    18    19   ar
     3    18    17   ar
     4    19    13   ar
     5    17    15   ar
     6    13    11    1
     7    13    14   ar
     8    15    14   ar
     9    12    11    1
    10    11     1    1
    11    14    16    1
    12     1     2    1
    13     3     2   ar
    14     3     4   ar
    15     2     7   ar
    16     4     5   ar
    17     7     6   ar
    18     5     6   ar
    19     6     8    1
    20    10     8    2
    21     8     9    2
