@<TRIPOS>MOLECULE
ZINC48816486_replica-1.pdb
 22 24 0 0 0
SMALL
GASTEIGER

@<TRIPOS>ATOM
      1  C1        -1.9680   27.7850   51.0880 C.3     0  <0>0        0.0275
      2  C2        -1.2290   27.6640   52.3960 C.2     0  <0>0       -0.0264
      3  C3        -0.4690   26.5860   52.6490 C.2     0  <0>0        0.0027
      4  S1         0.1770   26.9100   54.2800 S.3     0  <0>0       -0.0639
      5  C4        -0.5910   28.4830   54.5710 C.2     0  <0>0        0.1515
      6  C5        -1.3230   28.7150   53.3930 C.3     0  <0>0        0.1537
      7  C6        -2.0560   29.9450   53.3500 C.2     0  <0>0        0.2384
      8  O1        -2.7250   30.2340   52.3720 O.2     0  <0>0       -0.2739
      9  N1        -1.9940   30.7780   54.4060 N.am    0  <0>0       -0.2594
     10  C7        -1.2540   30.4730   55.5040 C.2     0  <0>0        0.2073
     11  N2        -0.5840   29.3530   55.5770 N.2     0  <0>0       -0.3846
     12  C15       -0.2230   25.3890   51.7680 C.3     0  <0>0        0.0376
     13  H13       -2.4880   31.6120   54.3830 H       0  <0>0        0.1570
     14  C8        -1.2160   31.4360   56.6610 C.3     0  <0>0        0.2793
     15  O2         0.1090   31.4880   57.1940 O.3     0  <0>0       -0.4659
     16  C9         0.4120   32.5450   57.9920 C.ar    0  <0>0        0.1445
     17  C14        0.6960   32.3440   59.3360 C.ar    0  <0>0        0.0640
     18  C13        1.0100   33.4200   60.1430 C.ar    0  <0>0        0.0088
     19  I1         0.6550   30.4080   60.1370 I       0  <0>0       -0.0394
     20  C12        1.0310   34.6980   59.6160 C.ar    0  <0>0        0.0006
     21  C11        0.7430   34.9020   58.2790 C.ar    0  <0>0        0.0031
     22  C10        0.4340   33.8290   57.4660 C.ar    0  <0>0        0.0374
@<TRIPOS>BOND
     1     1     2    1
     2    12     3    1
     3     8     7    2
     4     2     3    2
     5     2     6    1
     6     3     4    1
     7     7     6    1
     8     7     9   am
     9     6     5    1
    10     4     5    1
    11    13     9    1
    12     9    10    1
    13     5    11    2
    14    10    11    2
    15    10    14    1
    16    14    15    1
    17    15    16    1
    18    22    16   ar
    19    22    21   ar
    20    16    17   ar
    21    21    20   ar
    22    17    19    1
    23    17    18   ar
    24    20    18   ar
