@<TRIPOS>MOLECULE
ZINC02296410_replica-1.pdb
 27 31 0 0 0
SMALL
GASTEIGER

@<TRIPOS>ATOM
      1  C1        14.1760   31.9030   63.9230 C.3     0  <0>0        0.0004
      2  C2        13.2720   32.6500   62.9410 C.3     0  <0>0        0.0052
      3  C3        11.8720   32.0280   62.9550 C.3     0  <0>0        0.0047
      4  C4        11.0380   32.5990   61.8080 C.3     0  <0>0        0.0231
      5  C5        11.0820   34.1230   61.8790 C.2     0  <0>0       -0.0282
      6  C6        12.0470   34.7530   62.5850 C.2     0  <0>0        0.0023
      7  S1        11.7030   36.4810   62.3860 S.3     0  <0>0       -0.0640
      8  C7        10.2630   36.3480   61.3550 C.2     0  <0>0        0.1511
      9  C8        10.1000   34.9650   61.2010 C.3     0  <0>0        0.1362
     10  C9         8.9470   34.5570   60.3690 C.ar    0  <0>0        0.1604
     11  N1         8.4600   33.4000   59.9930 N.ar    0  <0>0       -0.1316
     12  N2         7.4160   33.5860   59.2620 N.ar    0  <0>0       -0.1220
     13  C10        7.1820   34.8700   59.1220 C.ar    0  <0>0        0.1994
     14  N3         8.1460   35.5370   59.8260 N.ar    0  <0>0       -0.2410
     15  C11        8.4170   36.8610   60.0540 C.2     0  <0>0        0.2293
     16  N4         9.4390   37.2290   60.7930 N.2     0  <0>0       -0.3753
     17  C20       13.1610   34.1230   63.3620 C.3     0  <0>0        0.0324
     18  S3         5.8650   35.5980   58.2040 S.3     0  <0>0       -0.0704
     19  C13        4.4630   35.5780   59.3550 C.3     0  <0>0        0.0914
     20  C14        3.1740   35.5600   58.5760 C.ar    0  <0>0       -0.0109
     21  C19        3.1460   36.0210   57.2730 C.ar    0  <0>0       -0.0034
     22  C18        1.9630   36.0050   56.5580 C.ar    0  <0>0       -0.0003
     23  C17        0.8070   35.5270   57.1470 C.ar    0  <0>0       -0.0000
     24  C16        0.8340   35.0660   58.4500 C.ar    0  <0>0       -0.0003
     25  C15        2.0170   35.0820   59.1650 C.ar    0  <0>0       -0.0034
     26  S2         7.3750   38.0910   59.3460 S.3     0  <0>0       -0.0630
     27  C12        8.3790   38.5700   57.9180 C.3     0  <0>0        0.0783
@<TRIPOS>BOND
     1    22    23   ar
     2    22    21   ar
     3    23    24   ar
     4    21    20   ar
     5    27    26    1
     6    18    13    1
     7    18    19    1
     8    24    25   ar
     9    20    25   ar
    10    20    19    1
    11    13    12   ar
    12    13    14   ar
    13    12    11   ar
    14    26    15    1
    15    14    15    1
    16    14    10   ar
    17    11    10   ar
    18    15    16    2
    19    10     9    1
    20    16     8    2
    21     9     8    1
    22     9     5    1
    23     8     7    1
    24     4     5    1
    25     4     3    1
    26     5     6    2
    27     7     6    1
    28     6    17    1
    29     2     3    1
    30     2    17    1
    31     2     1    1
