@<TRIPOS>MOLECULE
ZINC49897647_replica-1.pdb
 24 26 0 0 0
SMALL
GASTEIGER

@<TRIPOS>ATOM
      1  C10       10.5780   36.3620   61.4100 C.3     0  <0>0        0.0550
      2  C9        11.1000   34.9460   61.1550 C.3     0  <0>0        0.0899
      3  N1        12.1680   34.6400   62.1100 N.pl3   0  <0>0       -0.3328
      4  H11       12.8030   35.3280   62.3630 H       0  <0>0        0.1468
      5  C5        12.2720   33.3590   62.6550 C.ar    0  <0>0        0.0406
      6  C4        11.1330   32.5810   62.8270 C.ar    0  <0>0        0.0137
      7  C3        11.2390   31.3140   63.3660 C.ar    0  <0>0       -0.0030
      8  C2        12.4760   30.8190   63.7340 C.ar    0  <0>0       -0.0221
      9  C1        12.5880   29.4360   64.3220 C.3     0  <0>0        0.0310
     10  C7        13.6100   31.5920   63.5690 C.ar    0  <0>0       -0.0073
     11  C6        13.5120   32.8580   63.0260 C.ar    0  <0>0       -0.0091
     12  C8        14.7510   33.6970   62.8410 C.3     0  <0>0        0.0323
     13  C11        9.0570   36.3820   61.2440 C.3     0  <0>0        0.1344
     14  C12        8.7100   36.8580   59.8560 C.ar    0  <0>0        0.0040
     15  C17        8.7750   35.9830   58.7900 C.ar    0  <0>0       -0.0065
     16  C16        8.4510   36.4160   57.5140 C.ar    0  <0>0       -0.0264
     17  C15        8.0730   37.7290   57.3080 C.ar    0  <0>0       -0.0261
     18  C18        8.4360   35.6660   56.1990 C.3     0  <0>0        0.0264
     19  C14        8.0140   38.6050   58.3780 C.ar    0  <0>0       -0.0048
     20  C20        7.7790   37.9520   55.8400 C.3     0  <0>0        0.0264
     21  C13        8.3310   38.1710   59.6500 C.ar    0  <0>0       -0.0023
     22  C19        7.5940   36.5390   55.2460 C.3     0  <0>0        0.0093
     23  O1         8.4840   37.2660   62.2080 O.3     0  <0>0       -0.3800
     24  H25        9.1360   37.7760   62.7100 H       0  <0>0        0.2108
@<TRIPOS>BOND
     1    22    20    1
     2    22    18    1
     3    20    17    1
     4    18    16    1
     5    17    16   ar
     6    17    19   ar
     7    16    15   ar
     8    19    21   ar
     9    15    14   ar
    10    21    14   ar
    11    14    13    1
    12     2     1    1
    13     2     3    1
    14    13     1    1
    15    13    23    1
    16     3     4    1
    17     3     5    1
    18    23    24    1
    19     5     6   ar
    20     5    11   ar
    21     6     7   ar
    22    12    11    1
    23    11    10   ar
    24     7     8   ar
    25    10     8   ar
    26     8     9    1
