@<TRIPOS>MOLECULE
ZINC04903699_replica-1.pdb
 30 34 0 0 0
SMALL
GASTEIGER

@<TRIPOS>ATOM
      1  N1        -0.1080   29.8380   56.2110 N.ar    0  <0>0       -0.2272
      2  C9        -0.3840   29.2990   57.4120 C.ar    0  <0>0        0.2696
      3  O1        -0.8630   28.1830   57.4930 O.2     0  <0>0       -0.2664
      4  C10       -0.0940   30.0790   58.6330 C.ar    0  <0>0        0.0749
      5  C11       -0.3120   29.6900   60.0350 C.ar    0  <0>0       -0.0136
      6  C12        0.0500   30.6160   60.9380 C.ar    0  <0>0        0.0049
      7  S1         0.6650   31.9700   59.9690 S.2     0  <0>0       -0.0742
      8  C13        0.4530   31.3430   58.4370 C.ar    0  <0>0        0.0981
      9  N2         0.7020   31.8180   57.1740 N.ar    0  <0>0       -0.2713
     10  C14        0.4260   31.0650   56.0930 C.ar    0  <0>0        0.3383
     11  O2         0.6610   31.5070   54.9850 O.2     0  <0>0       -0.2458
     12  C23       -0.2030   30.1550   62.3480 C.3     0  <0>0        0.0330
     13  C24       -1.1790   28.9650   62.1990 C.3     0  <0>0        0.0099
     14  C25       -0.8570   28.4700   60.7760 C.3     0  <0>0        0.0271
     15  C6        -0.3820   29.0980   55.0520 C.ar    0  <0>0        0.0711
     16  C5         0.3540   27.9550   54.7660 C.ar    0  <0>0        0.0174
     17  C4         0.0820   27.2290   53.6240 C.ar    0  <0>0       -0.0028
     18  C3        -0.9220   27.6370   52.7650 C.ar    0  <0>0       -0.0221
     19  C8        -1.6520   28.7780   53.0440 C.ar    0  <0>0       -0.0028
     20  C7        -1.3880   29.5060   54.1870 C.ar    0  <0>0        0.0174
     21  C2        -1.2160   26.8420   51.5200 C.3     0  <0>0        0.0264
     22  C1        -0.7290   25.4040   51.7060 C.3     0  <0>0        0.0050
     23  C15        1.2790   33.1530   57.0010 C.3     0  <0>0        0.1377
     24  C16        2.7580   33.0310   56.7390 C.ar    0  <0>0        0.0005
     25  C21        3.5300   32.1890   57.5170 C.ar    0  <0>0       -0.0027
     26  C20        4.8860   32.0740   57.2740 C.ar    0  <0>0       -0.0045
     27  C19        5.4720   32.8070   56.2590 C.ar    0  <0>0       -0.0219
     28  C18        4.7010   33.6540   55.4860 C.ar    0  <0>0       -0.0045
     29  C22        6.9510   32.6850   55.9970 C.3     0  <0>0        0.0310
     30  C17        3.3430   33.7650   55.7250 C.ar    0  <0>0       -0.0027
@<TRIPOS>BOND
     1    21    22    1
     2    21    18    1
     3    18    19   ar
     4    18    17   ar
     5    19    20   ar
     6    17    16   ar
     7    20    15   ar
     8    16    15   ar
     9    11    10    2
    10    15     1    1
    11    28    30   ar
    12    28    27   ar
    13    30    24   ar
    14    29    27    1
    15    10     1   ar
    16    10     9   ar
    17     1     2   ar
    18    27    26   ar
    19    24    23    1
    20    24    25   ar
    21    23     9    1
    22     9     8   ar
    23    26    25   ar
    24     2     3    2
    25     2     4   ar
    26     8     4   ar
    27     8     7   ar
    28     4     5   ar
    29     7     6   ar
    30     5    14    1
    31     5     6   ar
    32    14    13    1
    33     6    12    1
    34    13    12    1
