@<TRIPOS>MOLECULE
ZINC41187268_replica-1.pdb
 19 19 0 0 0
SMALL
GASTEIGER

@<TRIPOS>ATOM
      1  C5         7.5660   37.0800   58.5990 C.3     0  <0>0        0.0079
      2  C6         7.1840   38.4090   59.2540 C.3     0  <0>0       -0.0141
      3  C4         8.0940   36.1190   59.6670 C.3     0  <0>0       -0.0124
      4  C2         9.6150   36.2510   59.7650 C.3     0  <0>0       -0.0016
      5  C1         9.9890   36.8630   61.1160 C.3     0  <0>0       -0.0001
      6  C3        10.2560   34.8680   59.6360 C.3     0  <0>0       -0.0001
      7  C7         6.3530   36.4780   57.9380 C.2     0  <0>0        0.1155
      8  S1         6.0290   36.3150   56.2940 S.3     0  <0>0       -0.0815
      9  C9         4.4350   35.5250   56.4350 C.3     0  <0>0        0.1183
     10  C8         4.3010   35.4690   57.7850 C.2     0  <0>0        0.0973
     11  N1         5.2910   35.9620   58.5040 N.2     0  <0>0       -0.4098
     12  C10        3.0780   34.8730   58.4330 C.3     0  <0>0        0.0436
     13  C11        2.5110   33.7720   57.5350 C.3     0  <0>0        0.0067
     14  C12        3.4590   34.2780   59.7900 C.3     0  <0>0        0.0067
     15  C13        2.0230   35.9630   58.6320 C.3     0  <0>0        0.0067
     16  N2         8.6100   37.3120   57.5910 N.4     0  <0>0        0.3893
     17  C14        8.6250   38.7330   57.2200 C.3     0  <0>0       -0.1048
     18  H23        9.5080   37.0550   57.9730 H       0  <0>0       -0.0838
     19  H27        8.4180   36.7520   56.7750 H       0  <0>0       -0.0838
@<TRIPOS>BOND
     1     8     9    1
     2     8     7    1
     3     9    10    1
     4    19    16    1
     5    17    16    1
     6    13    12    1
     7    16    18    1
     8    16     1    1
     9    10    12    1
    10    10    11    2
    11     7    11    2
    12     7     1    1
    13    12    15    1
    14    12    14    1
    15     1     2    1
    16     1     3    1
    17     6     4    1
    18     3     4    1
    19     4     5    1
