@<TRIPOS>MOLECULE
ZINC04807109_replica-1.pdb
 26 28 0 0 0
SMALL
GASTEIGER

@<TRIPOS>ATOM
      1  C5         0.2950   30.1050   55.6080 C.ar    0  <0>0        0.1374
      2  C6         0.0850   29.6850   54.3080 C.ar    0  <0>0        0.0446
      3  C7        -0.2540   28.3230   54.4080 C.ar    0  <0>0        0.1029
      4  N2        -0.2310   27.9990   55.6840 N.ar    0  <0>0       -0.1650
      5  N3         0.0880   29.0130   56.4050 N.ar    0  <0>0       -0.2252
      6  C8         0.2010   29.0030   57.8010 C.ar    0  <0>0        0.0839
      7  C13        1.4240   28.7290   58.3980 C.ar    0  <0>0        0.0314
      8  C12        1.5320   28.7190   59.7760 C.ar    0  <0>0        0.0697
      9  C11        0.4230   28.9840   60.5600 C.ar    0  <0>0        0.0683
     10 Cl          3.0610   28.3760   60.5240 Cl      0  <0>0       -0.0813
     11  C10       -0.7960   29.2630   59.9670 C.ar    0  <0>0        0.0138
     12 Cl          0.5620   28.9730   62.2910 Cl      0  <0>0       -0.0814
     13  C9        -0.9110   29.2680   58.5910 C.ar    0  <0>0        0.0201
     14  C4         0.6700   31.4600   56.0460 C.2     0  <0>0        0.2636
     15  N1         1.9570   31.8540   55.9910 N.am    0  <0>0       -0.3013
     16  H8         2.6250   31.2720   55.5950 H       0  <0>0        0.1497
     17  O1        -0.1830   32.2220   56.4590 O.2     0  <0>0       -0.2685
     18  C2         2.3470   33.1590   56.5290 C.3     0  <0>0        0.0720
     19  C1         2.9540   32.9760   57.9220 C.3     0  <0>0        0.0213
     20  C3         3.3800   33.8040   55.6040 C.3     0  <0>0        0.0213
     21  C14       -0.5790   27.4160   53.2790 C.ar    0  <0>0        0.0194
     22  C19       -1.3330   27.8800   52.2040 C.ar    0  <0>0        0.0016
     23  C18       -1.6320   27.0310   51.1570 C.ar    0  <0>0        0.0000
     24  C17       -1.1840   25.7230   51.1740 C.ar    0  <0>0        0.0000
     25  C16       -0.4340   25.2570   52.2380 C.ar    0  <0>0        0.0000
     26  C15       -0.1250   26.0990   53.2880 C.ar    0  <0>0        0.0016
@<TRIPOS>BOND
     1    23    24   ar
     2    23    22   ar
     3    24    25   ar
     4    22    21   ar
     5    25    26   ar
     6    21    26   ar
     7    21     3    1
     8     2     3   ar
     9     2     1   ar
    10     3     4   ar
    11    16    15    1
    12    20    18    1
    13     1    14    1
    14     1     5   ar
    15     4     5   ar
    16    15    14   am
    17    15    18    1
    18    14    17    2
    19     5     6    1
    20    18    19    1
    21     6     7   ar
    22     6    13   ar
    23     7     8   ar
    24    13    11   ar
    25     8    10    1
    26     8     9   ar
    27    11     9   ar
    28     9    12    1
