@<TRIPOS>MOLECULE
ZINC07804424_replica-1.pdb
 28 32 0 0 0
SMALL
GASTEIGER

@<TRIPOS>ATOM
      1  C11        5.3790   35.8310   56.6720 C.2     0  <0>0        0.2494
      2  O1         5.3590   35.2160   55.6230 O.2     0  <0>0       -0.2700
      3  N3         4.2220   36.1540   57.2860 N.am    0  <0>0       -0.3008
      4  H9         4.2380   36.6450   58.1230 H       0  <0>0        0.1497
      5  C3         6.6650   36.2290   57.2690 C.ar    0  <0>0        0.0970
      6  C2         7.5300   37.2440   56.7990 C.ar    0  <0>0        0.0860
      7  C1         7.2980   38.1140   55.5910 C.3     0  <0>0        0.0542
      8  N2         8.5630   37.2970   57.5950 N.ar    0  <0>0       -0.1685
      9  N1         8.4160   36.3280   58.5950 N.ar    0  <0>0       -0.2192
     10  C4         7.2550   35.6780   58.3920 C.ar    0  <0>0        0.1453
     11 Cl          6.6170   34.3850   59.3600 Cl      0  <0>0       -0.0611
     12  C5         9.3260   36.0780   59.6310 C.ar    0  <0>0        0.0837
     13  C10       10.0990   34.9250   59.6150 C.ar    0  <0>0        0.0192
     14  C9        10.9940   34.6820   60.6380 C.ar    0  <0>0        0.0015
     15  C8        11.1190   35.5840   61.6790 C.ar    0  <0>0        0.0001
     16  C7        10.3500   36.7330   61.6980 C.ar    0  <0>0        0.0015
     17  C6         9.4580   36.9850   60.6740 C.ar    0  <0>0        0.0192
     18  C12        2.9430   35.7620   56.6890 C.3     0  <0>0        0.0896
     19  C13        2.2520   34.7380   57.5930 C.3     0  <0>0        0.0181
     20  C18        2.7000   34.9490   59.0400 C.3     0  <0>0        0.0016
     21  C17        2.0100   33.9260   59.9420 C.3     0  <0>0        0.0001
     22  C16        0.4930   34.1040   59.8470 C.3     0  <0>0        0.0000
     23  C19        2.3860   32.5130   59.4930 C.3     0  <0>0        0.0000
     24  C15        0.0440   33.8920   58.4000 C.3     0  <0>0        0.0001
     25  C14        0.7350   34.9160   57.4980 C.3     0  <0>0        0.0016
     26  C21        0.4200   32.4800   57.9510 C.3     0  <0>0        0.0000
     27  C20        1.9370   32.3020   58.0460 C.3     0  <0>0        0.0001
     28  C22        2.6290   33.3250   57.1420 C.3     0  <0>0        0.0016
@<TRIPOS>BOND
     1     7     6    1
     2     2     1    2
     3     1     5    1
     4     1     3   am
     5    18     3    1
     6    18    19    1
     7     6     5   ar
     8     6     8   ar
     9    28    19    1
    10    28    27    1
    11     5    10   ar
    12     3     4    1
    13    25    19    1
    14    25    24    1
    15    19    20    1
    16     8     9   ar
    17    26    27    1
    18    26    24    1
    19    27    23    1
    20    10     9   ar
    21    10    11    1
    22    24    22    1
    23     9    12    1
    24    20    21    1
    25    23    21    1
    26    13    12   ar
    27    13    14   ar
    28    12    17   ar
    29    22    21    1
    30    14    15   ar
    31    17    16   ar
    32    15    16   ar
