@<TRIPOS>MOLECULE
ZINC37775902_replica-1.pdb
 23 24 0 0 0
SMALL
GASTEIGER

@<TRIPOS>ATOM
      1  N1         0.4070   29.1910   55.0370 N.3     0  <0>0       -0.2959
      2  H11        1.2000   29.6780   54.6450 H       0  <0>0        0.1235
      3  C2         0.1100   29.6780   56.3910 C.3     0  <0>0        0.0588
      4  C1         0.7100   31.0730   56.5760 C.3     0  <0>0        0.0175
      5  C3         0.7150   28.7220   57.4210 C.3     0  <0>0        0.0466
      6  C4        -0.3550   27.7970   57.9390 C.ar    0  <0>0        0.0340
      7  C9        -1.3040   28.2660   58.8310 C.ar    0  <0>0        0.1383
      8  C8        -2.2910   27.4180   59.3020 C.ar    0  <0>0        0.0295
      9  F1        -1.2710   29.5550   59.2360 F       0  <0>0       -0.2044
     10  C7        -2.3210   26.0970   58.8920 C.ar    0  <0>0        0.0046
     11  C6        -1.3710   25.6260   58.0060 C.ar    0  <0>0        0.0295
     12  C5        -0.3870   26.4760   57.5290 C.ar    0  <0>0        0.1383
     13  F2         0.5420   26.0140   56.6630 F       0  <0>0       -0.2044
     14  C10       -0.7680   29.3090   54.1660 C.3     0  <0>0        0.0768
     15  C11       -2.0340   29.3720   55.0240 C.3     0  <0>0        0.0220
     16  C12       -0.8400   28.1120   53.2530 C.ar    0  <0>0       -0.0078
     17  C17       -1.5350   28.1940   52.0610 C.ar    0  <0>0        0.0001
     18  C16       -1.5970   27.1000   51.2190 C.ar    0  <0>0        0.0363
     19  C15       -0.9700   25.9150   51.5770 C.ar    0  <0>0        0.1337
     20  C14       -0.2780   25.8340   52.7770 C.ar    0  <0>0        0.0363
     21  C13       -0.2150   26.9320   53.6120 C.ar    0  <0>0        0.0001
     22  O1        -1.0330   24.8350   50.7540 O.3     0  <0>0       -0.5055
     23  H19       -1.6730   24.1650   51.0320 H       0  <0>0        0.2922
@<TRIPOS>BOND
     1    22    23    1
     2    22    19    1
     3    18    19   ar
     4    18    17   ar
     5    19    20   ar
     6    17    16   ar
     7    20    21   ar
     8    16    21   ar
     9    16    14    1
    10    14    15    1
    11    14     1    1
    12     2     1    1
    13     1     3    1
    14     3     4    1
    15     3     5    1
    16    13    12    1
    17     5     6    1
    18    12     6   ar
    19    12    11   ar
    20     6     7   ar
    21    11    10   ar
    22     7     9    1
    23     7     8   ar
    24    10     8   ar
