@<TRIPOS>MOLECULE
ZINC38590657_replica-1.pdb
 32 36 0 0 0
SMALL
GASTEIGER

@<TRIPOS>ATOM
      1  C8        -0.3570   30.4640   57.7010 C.3     0  <0>0        0.1273
      2  C9        -0.2910   29.6300   56.4640 C.ar    0  <0>0        0.0780
      3  C10       -0.8400   29.8470   55.1210 C.ar    0  <0>0        0.1992
      4  O1        -1.3280   30.9040   54.7640 O.2     0  <0>0       -0.2866
      5  C11       -0.7430   28.6560   54.2390 C.ar    0  <0>0        0.0693
      6  C12       -1.3930   28.6360   53.0060 C.ar    0  <0>0       -0.0161
      7  C13       -1.2980   27.5300   52.2080 C.ar    0  <0>0       -0.0082
      8  C14       -0.5580   26.4310   52.6210 C.ar    0  <0>0       -0.0191
      9  C15        0.0920   26.4350   53.8350 C.ar    0  <0>0        0.0333
     10  C16        0.0120   27.5520   54.6670 C.ar    0  <0>0        0.1479
     11  O2         0.6670   27.5390   55.8510 O.2     0  <0>0       -0.4490
     12  C17        0.4190   28.5010   56.7600 C.ar    0  <0>0        0.1994
     13  C18        0.8230   28.5680   58.1760 C.2     0  <0>0        0.2843
     14  O3         1.4660   27.7160   58.7570 O.2     0  <0>0       -0.2665
     15  N1         0.3730   29.7120   58.7340 N.am    0  <0>0       -0.2633
     16  C26       -0.4650   25.2190   51.7320 C.3     0  <0>0        0.0311
     17  C27       -2.1980   29.8280   52.5550 C.3     0  <0>0        0.0312
     18  C19        0.5750   30.1310   60.1220 C.3     0  <0>0        0.1211
     19  C20        1.7590   31.0620   60.1990 C.ar    0  <0>0       -0.0022
     20  C25        3.0020   30.6350   59.7700 C.ar    0  <0>0       -0.0003
     21  C24        4.0860   31.4890   59.8360 C.ar    0  <0>0        0.0294
     22  C23        3.9300   32.7680   60.3410 C.ar    0  <0>0        0.1401
     23  C22        2.6850   33.1930   60.7740 C.ar    0  <0>0        0.0294
     24  F1         4.9900   33.6020   60.4100 F       0  <0>0       -0.2042
     25  C21        1.6010   32.3390   60.7030 C.ar    0  <0>0       -0.0003
     26  C5         0.3040   31.7980   57.4640 C.ar    0  <0>0        0.0001
     27  C4        -0.3110   32.9590   57.8920 C.ar    0  <0>0       -0.0027
     28  C3         0.2950   34.1820   57.6770 C.ar    0  <0>0       -0.0045
     29  C2         1.5170   34.2440   57.0320 C.ar    0  <0>0       -0.0219
     30  C1         2.1780   35.5770   56.7960 C.3     0  <0>0        0.0310
     31  C7         2.1280   33.0820   56.5990 C.ar    0  <0>0       -0.0045
     32  C6         1.5240   31.8590   56.8190 C.ar    0  <0>0       -0.0027
@<TRIPOS>BOND
     1    16     8    1
     2     7     8   ar
     3     7     6   ar
     4    17     6    1
     5     8     9   ar
     6     6     5   ar
     7     9    10   ar
     8     5    10   ar
     9     5     3   ar
    10    10    11   ar
    11     4     3    2
    12     3     2   ar
    13    11    12   ar
    14     2    12   ar
    15     2     1    1
    16    31    32   ar
    17    31    29   ar
    18    12    13    1
    19    30    29    1
    20    32    26   ar
    21    29    28   ar
    22    26     1    1
    23    26    27   ar
    24    28    27   ar
    25     1    15    1
    26    13    15   am
    27    13    14    2
    28    15    18    1
    29    20    21   ar
    30    20    19   ar
    31    21    22   ar
    32    18    19    1
    33    19    25   ar
    34    22    24    1
    35    22    23   ar
    36    25    23   ar
