@<TRIPOS>MOLECULE
ZINC62543359_replica-1.pdb
 21 21 0 0 0
SMALL
GASTEIGER

@<TRIPOS>ATOM
      1  O1         6.3320   35.4020   58.5110 O.3     0  <0>0       -0.3562
      2  C6         7.2240   35.1650   57.4200 C.3     0  <0>0        0.1151
      3  C5         8.2380   36.3070   57.3330 C.3     0  <0>0        0.0272
      4  C4         9.0350   36.3810   58.6360 C.3     0  <0>0        0.0024
      5  C3         9.7730   35.0590   58.8580 C.3     0  <0>0        0.0002
      6  C2         8.7590   33.9170   58.9450 C.3     0  <0>0        0.0024
      7  C1         7.8050   34.1700   60.1140 C.3     0  <0>0        0.0001
      8  C7         7.9620   33.8430   57.6420 C.3     0  <0>0        0.0295
      9  C14        7.5000   37.6290   57.1110 C.3     0  <0>0        0.0023
     10  C15        8.4150   38.7940   57.4940 C.3     0  <0>0        0.0001
     11  C16        7.1070   37.7520   55.6380 C.3     0  <0>0        0.0001
     12  C8         5.0190   34.8750   58.3140 C.3     0  <0>0        0.1440
     13  C9         4.2610   35.7550   57.3180 C.3     0  <0>0        0.0592
     14  C10        2.9630   35.0560   56.9040 C.3     0  <0>0        0.1569
     15  C11        1.7910   35.7530   57.5440 C.2     0  <0>0        0.3315
     16  O2         0.8860   36.1660   56.8590 O.2     0  <0>0       -0.2486
     17  O3         1.7530   35.9150   58.8760 O.3     0  <0>0       -0.4435
     18  C12        1.1190   34.8840   59.6370 C.3     0  <0>0        0.2556
     19  N1         2.8250   35.1070   55.4420 N.3     0  <0>0       -0.2885
     20  C13        4.1030   35.4550   54.8060 C.3     0  <0>0        0.0863
     21  H21        2.4660   34.2370   55.0820 H       0  <0>0        0.1237
@<TRIPOS>BOND
     1    20    19    1
     2    21    19    1
     3    19    14    1
     4    11     9    1
     5    16    15    2
     6    14    13    1
     7    14    15    1
     8     9     3    1
     9     9    10    1
    10    13    12    1
    11     3     2    1
    12     3     4    1
    13     2     8    1
    14     2     1    1
    15    15    17    1
    16     8     6    1
    17    12     1    1
    18     4     5    1
    19     5     6    1
    20    17    18    1
    21     6     7    1
