@<TRIPOS>MOLECULE
ZINC65331598_replica-1.pdb
 28 31 0 0 0
SMALL
GASTEIGER

@<TRIPOS>ATOM
      1  N1         6.2380   35.0040   56.7410 N.ar    0  <0>0       -0.2162
      2  C8         6.5690   35.8450   57.7410 C.ar    0  <0>0        0.1333
      3  C9         7.8070   36.3590   57.4600 C.ar    0  <0>0        0.0347
      4  C10        8.2340   35.8100   56.2600 C.ar    0  <0>0        0.1194
      5  N2         7.3030   34.9930   55.8240 N.ar    0  <0>0       -0.1627
      6  C11        8.4930   37.3470   58.3680 C.3     0  <0>0        0.0580
      7  C12        7.4190   38.1540   59.1010 C.3     0  <0>0        0.0943
      8  C13        6.3100   37.2710   59.5960 C.2     0  <0>0        0.2278
      9  O1         5.7900   37.5240   60.6620 O.2     0  <0>0       -0.2747
     10  N3         5.8710   36.2030   58.8950 N.am    0  <0>0       -0.2695
     11  H12        5.0930   35.7000   59.1850 H       0  <0>0        0.1562
     12  C14        9.3470   36.6100   59.3670 C.ar    0  <0>0       -0.0178
     13  C19        9.7690   35.3210   59.0990 C.ar    0  <0>0       -0.0040
     14  C18       10.5560   34.6480   60.0140 C.ar    0  <0>0        0.0035
     15  C17       10.9130   35.2590   61.2010 C.ar    0  <0>0        0.0714
     16  C16       10.4870   36.5460   61.4720 C.ar    0  <0>0        0.0035
     17  C15        9.7040   37.2220   60.5550 C.ar    0  <0>0       -0.0040
     18  C20       11.7680   34.5230   62.2000 C.3     0  <0>0        0.4186
     19  F1        12.0430   35.3620   63.2870 F       0  <0>0       -0.1659
     20  F2        11.0870   33.3870   62.6490 F       0  <0>0       -0.1659
     21  F3        12.9680   34.1380   61.5940 F       0  <0>0       -0.1659
     22  C5         5.0500   34.2690   56.6360 C.ar    0  <0>0        0.0842
     23  C4         3.9410   34.8220   56.0090 C.ar    0  <0>0        0.0189
     24  C3         2.7720   34.0950   55.9080 C.ar    0  <0>0       -0.0027
     25  C2         2.7030   32.8170   56.4290 C.ar    0  <0>0       -0.0218
     26  C1         1.4250   32.0260   56.3170 C.3     0  <0>0        0.0310
     27  C7         3.8030   32.2640   57.0590 C.ar    0  <0>0       -0.0027
     28  C6         4.9780   32.9850   57.1600 C.ar    0  <0>0        0.0189
@<TRIPOS>BOND
     1     5     4   ar
     2     5     1   ar
     3    24    23   ar
     4    24    25   ar
     5    23    22   ar
     6     4     3   ar
     7    26    25    1
     8    25    27   ar
     9    22     1    1
    10    22    28   ar
    11     1     2   ar
    12    27    28   ar
    13     3     2   ar
    14     3     6    1
    15     2    10    1
    16     6     7    1
    17     6    12    1
    18    10    11    1
    19    10     8   am
    20    13    12   ar
    21    13    14   ar
    22     7     8    1
    23    12    17   ar
    24     8     9    2
    25    14    15   ar
    26    17    16   ar
    27    15    16   ar
    28    15    18    1
    29    21    18    1
    30    18    20    1
    31    18    19    1
