@<TRIPOS>MOLECULE
ZINC66162376_replica-1.pdb
 26 27 0 0 0
SMALL
GASTEIGER

@<TRIPOS>ATOM
      1  C10       -0.3260   29.7600   58.0670 C.ar    0  <0>0        0.1346
      2  C11        0.3700   30.7400   58.7590 C.ar    0  <0>0        0.0362
      3  C12        0.2720   30.8140   60.1350 C.ar    0  <0>0       -0.0012
      4  C13       -0.5200   29.9130   60.8230 C.ar    0  <0>0       -0.0229
      5  C14       -1.2150   28.9350   60.1350 C.ar    0  <0>0       -0.0056
      6  C15       -1.1250   28.8600   58.7580 C.ar    0  <0>0        0.0108
      7  O1        -0.2320   29.6850   56.7140 O.3     0  <0>0       -0.4739
      8  C9        -0.3440   30.9100   55.9860 C.3     0  <0>0        0.2265
      9  C8        -0.1140   30.6430   54.4980 C.3     0  <0>0        0.1351
     10  N1        -1.2690   29.9300   53.9450 N.pl3   0  <0>0       -0.3297
     11  H8        -2.1560   30.3170   54.0150 H       0  <0>0        0.1469
     12  C5        -1.0930   28.6950   53.3180 C.ar    0  <0>0        0.0447
     13  C4        -0.3330   27.7060   53.9310 C.ar    0  <0>0        0.0140
     14  C3        -0.1610   26.4850   53.3080 C.ar    0  <0>0       -0.0030
     15  C2        -0.7450   26.2460   52.0780 C.ar    0  <0>0       -0.0218
     16  C1        -0.5550   24.9120   51.4020 C.3     0  <0>0        0.0310
     17  C7        -1.4980   27.2300   51.4630 C.ar    0  <0>0       -0.0030
     18  C6        -1.6780   28.4510   52.0820 C.ar    0  <0>0        0.0140
     19  C16       -1.8870   27.7980   58.0090 C.3     0  <0>0        0.0218
     20  C17       -2.7430   28.4550   56.9250 C.3     0  <0>0        0.0045
     21  C18       -0.9020   26.8240   57.3600 C.3     0  <0>0        0.0045
     22  C19       -2.7920   27.0380   58.9810 C.3     0  <0>0        0.0045
     23  C20       -0.6250   29.9960   62.3240 C.3     0  <0>0        0.0189
     24  C21       -0.2970   31.4190   62.7800 C.3     0  <0>0        0.0044
     25  C22       -2.0490   29.6380   62.7550 C.3     0  <0>0        0.0044
     26  C23        0.3620   29.0160   62.9590 C.3     0  <0>0        0.0044
@<TRIPOS>BOND
     1    16    15    1
     2    17    15   ar
     3    17    18   ar
     4    15    14   ar
     5    18    12   ar
     6    14    13   ar
     7    12    13   ar
     8    12    10    1
     9    10    11    1
    10    10     9    1
    11     9     8    1
    12     8     7    1
    13     7     1    1
    14    20    19    1
    15    21    19    1
    16    19     6    1
    17    19    22    1
    18     1     6   ar
    19     1     2   ar
    20     6     5   ar
    21     2     3   ar
    22     5     4   ar
    23     3     4   ar
    24     4    23    1
    25    23    25    1
    26    23    24    1
    27    23    26    1
