@<TRIPOS>MOLECULE
ZINC06563073_replica-1.pdb
 29 32 0 0 0
SMALL
GASTEIGER

@<TRIPOS>ATOM
      1  C3         0.4110   32.3230   57.2500 C.3     0  <0>0        0.1688
      2  C4         0.6450   32.0850   58.7380 C.3     0  <0>0        0.0436
      3  C5         2.0330   32.5740   59.1680 C.3     0  <0>0        0.0037
      4  C6         2.1910   34.0460   58.8080 C.3     0  <0>0        0.0002
      5  C7         2.0170   34.2070   57.2980 C.3     0  <0>0        0.0036
      6  C8         0.6120   33.7980   56.8830 C.3     0  <0>0        0.0436
      7  C9         2.3980   35.6120   56.8540 C.3     0  <0>0        0.0001
      8  C10        3.9200   35.7750   57.0100 C.3     0  <0>0        0.0000
      9  C11        4.4400   34.7050   57.9590 C.3     0  <0>0        0.0001
     10  C12        3.5550   34.6110   59.2020 C.3     0  <0>0        0.0000
     11  C13        4.2360   33.7710   60.2710 C.3     0  <0>0        0.0002
     12  C14        5.5110   34.4550   60.7930 C.3     0  <0>0        0.0043
     13  C15        6.0940   35.3820   59.7620 C.3     0  <0>0        0.0445
     14  C16        5.8860   34.8550   58.3290 C.3     0  <0>0        0.0043
     15  C17        6.7070   35.8520   57.4960 C.3     0  <0>0        0.0048
     16  C18        7.9420   36.1480   58.3880 C.3     0  <0>0        0.0529
     17  C19        7.6230   35.5660   59.7900 C.3     0  <0>0        0.1888
     18  C20        8.3350   34.3000   59.9820 C.1     0  <0>0       -0.0397
     19  C21        8.9060   33.2860   60.1350 C.1     0  <0>0       -0.0108
     20  C24        5.5030   36.7920   59.9320 C.3     0  <0>0        0.0045
     21  C25        1.1320   34.8620   59.5530 C.3     0  <0>0        0.0000
     22  O3         7.9810   36.5200   60.8230 O.3     0  <0>0       -0.4433
     23  C22        9.1610   37.1470   60.6900 C.2     0  <0>0        0.3182
     24  O4         9.2380   38.1570   60.0320 O.2     0  <0>0       -0.2501
     25  C23       10.3900   36.5880   61.3600 C.3     0  <0>0        0.1212
     26  O2        -0.9440   31.9250   56.9050 O.3     0  <0>0       -0.4523
     27  C2        -1.1020   31.2260   55.7700 C.2     0  <0>0        0.3174
     28  C1         0.1010   30.6620   55.0600 C.3     0  <0>0        0.1212
     29  O1        -2.2080   31.0490   55.3170 O.2     0  <0>0       -0.2501
@<TRIPOS>BOND
     1    28    27    1
     2    29    27    2
     3    27    26    1
     4     7     8    1
     5     7     5    1
     6     6     1    1
     7     6     5    1
     8    26     1    1
     9     8     9    1
    10     1     2    1
    11     5     4    1
    12    15    14    1
    13    15    16    1
    14     9    14    1
    15     9    10    1
    16    14    13    1
    17    16    17    1
    18     2     3    1
    19     4     3    1
    20     4    10    1
    21     4    21    1
    22    10    11    1
    23    13    17    1
    24    13    20    1
    25    13    12    1
    26    17    18    1
    27    17    22    1
    28    18    19    3
    29    24    23    2
    30    11    12    1
    31    23    22    1
    32    23    25    1
