@<TRIPOS>MOLECULE
ZINC00257192_replica-1.pdb
 24 26 0 0 0
SMALL
GASTEIGER

@<TRIPOS>ATOM
      1  N1         8.0480   35.5460   59.9190 N.am    0  <0>0       -0.2648
      2  C13        9.3300   35.8020   60.2480 C.2     0  <0>0        0.2497
      3  O2         9.7940   36.9130   60.0690 O.2     0  <0>0       -0.2699
      4  C7         7.2150   36.6030   59.3400 C.3     0  <0>0        0.1209
      5  C4         7.1540   36.4320   57.8440 C.ar    0  <0>0       -0.0023
      6  C3         8.3110   36.5070   57.0920 C.ar    0  <0>0       -0.0026
      7  C2         8.2540   36.3500   55.7190 C.ar    0  <0>0       -0.0003
      8  C1         7.0410   36.1180   55.1000 C.ar    0  <0>0       -0.0000
      9  C6         5.8840   36.0420   55.8520 C.ar    0  <0>0       -0.0003
     10  C5         5.9410   36.1940   57.2240 C.ar    0  <0>0       -0.0026
     11  C8         7.4900   34.2090   60.1350 C.3     0  <0>0        0.1587
     12  C9         7.5050   33.4430   58.8370 C.ar    0  <0>0        0.1431
     13  O1         8.5770   33.2480   58.0520 O.2     0  <0>0       -0.4530
     14  C12        8.2220   32.5190   56.9810 C.ar    0  <0>0        0.1792
     15  C11        6.9070   32.2490   57.0690 C.ar    0  <0>0        0.0435
     16  C10        6.4440   32.8450   58.2650 C.ar    0  <0>0        0.0379
     17  C14       10.1640   34.7440   60.8200 C.2     0  <0>0        0.0580
     18  C15       11.2240   35.0630   61.5900 C.2     0  <0>0        0.0047
     19  C16       12.0630   33.9990   62.1660 C.ar    0  <0>0        0.0001
     20  C21       13.4450   34.1780   62.2820 C.ar    0  <0>0        0.0000
     21  C20       14.2230   33.1780   62.8220 C.ar    0  <0>0        0.0000
     22  C19       13.6400   31.9970   63.2510 C.ar    0  <0>0        0.0000
     23  C18       12.2730   31.8120   63.1400 C.ar    0  <0>0        0.0000
     24  C17       11.4800   32.8060   62.6060 C.ar    0  <0>0        0.0000
@<TRIPOS>BOND
     1     8     7   ar
     2     8     9   ar
     3     7     6   ar
     4     9    10   ar
     5    14    15   ar
     6    14    13   ar
     7    15    16   ar
     8     6     5   ar
     9    10     5   ar
    10     5     4    1
    11    13    12   ar
    12    16    12   ar
    13    12    11    1
    14     4     1    1
    15     1    11    1
    16     1     2   am
    17     3     2    2
    18     2    17    1
    19    17    18    2
    20    18    19    1
    21    19    20   ar
    22    19    24   ar
    23    20    21   ar
    24    24    23   ar
    25    21    22   ar
    26    23    22   ar
