@<TRIPOS>MOLECULE
ZINC41631986_replica-1.pdb
 23 24 0 0 0
SMALL
GASTEIGER

@<TRIPOS>ATOM
      1  C4         0.9600   32.0230   58.6360 C.2     0  <0>0        0.1089
      2  C5         0.8510   33.3830   58.6910 C.3     0  <0>0        0.1406
      3  C6         0.4570   34.0800   57.5350 C.2     0  <0>0        0.2351
      4  O1         0.3510   35.2950   57.5480 O.2     0  <0>0       -0.2742
      5  N1         0.2000   33.3790   56.4100 N.am    0  <0>0       -0.2541
      6  H1        -0.0730   33.8390   55.6010 H       0  <0>0        0.1577
      7  C7         0.3250   32.0230   56.4150 C.2     0  <0>0        0.2125
      8  N2         0.7010   31.3780   57.5020 N.2     0  <0>0       -0.3880
      9  S2        -0.0130   31.1160   54.9420 S.3     0  <0>0       -0.0621
     10  C8        -1.0470   29.7360   55.5040 C.3     0  <0>0        0.0921
     11  C9        -0.6470   28.4800   54.7760 C.ar    0  <0>0       -0.0107
     12  C14       -1.1350   28.2340   53.5090 C.ar    0  <0>0        0.0032
     13  C13       -0.7570   27.0700   52.8330 C.ar    0  <0>0        0.0795
     14  C12        0.1020   26.1590   53.4500 C.ar    0  <0>0        0.0066
     15  C11        0.5780   26.4160   54.7190 C.ar    0  <0>0       -0.0001
     16  C10        0.2050   27.5730   55.3810 C.ar    0  <0>0       -0.0034
     17  C15       -1.2710   26.8030   51.4750 C.2     0  <0>0        0.3877
     18  O2        -1.5090   27.7340   50.7180 O.co2   0  <0>0       -0.2406
     19  O3        -1.4580   25.6520   51.1070 O.co2   0  <0>0       -0.2406
     20  C3         1.3810   31.2530   59.8620 C.3     0  <0>0        0.1123
     21  S1         0.6080   31.9850   61.3300 S.3     0  <0>0       -0.1330
     22  C2        -0.4150   30.6460   62.0010 C.3     0  <0>0        0.0580
     23  C1        -0.7890   30.9670   63.4490 C.3     0  <0>0        0.0126
@<TRIPOS>BOND
     1    18    17   ar
     2    19    17   ar
     3    17    13    1
     4    13    14   ar
     5    13    12   ar
     6    14    15   ar
     7    12    11   ar
     8    15    16   ar
     9    11    16   ar
    10    11    10    1
    11     9    10    1
    12     9     7    1
    13     6     5    1
    14     5     7    1
    15     5     3   am
    16     7     8    2
    17     8     1    2
    18     3     4    2
    19     3     2    1
    20     1     2    1
    21     1    20    1
    22    20    21    1
    23    21    22    1
    24    22    23    1
