@<TRIPOS>MOLECULE
ZINC32129225_replica-1.pdb
 23 24 0 0 0
SMALL
GASTEIGER

@<TRIPOS>ATOM
      1  C10       -1.9710   30.6960   55.6330 C.3     0  <0>0        0.1521
      2  C9        -2.1280   30.0310   54.2640 C.3     0  <0>0        0.1213
      3  N1        -0.8370   29.4870   53.8350 N.pl3   0  <0>0       -0.3307
      4  H11        0.0840   30.0680   53.9930 H       0  <0>0        0.1469
      5  C5        -0.7750   28.2330   53.2240 C.ar    0  <0>0        0.0406
      6  C4        -1.3330   28.0430   51.9650 C.ar    0  <0>0        0.0137
      7  C3        -1.2750   26.8000   51.3670 C.ar    0  <0>0       -0.0030
      8  C2        -0.6510   25.7480   52.0120 C.ar    0  <0>0       -0.0221
      9  C1        -0.5840   24.3950   51.3530 C.3     0  <0>0        0.0310
     10  C7        -0.0940   25.9340   53.2650 C.ar    0  <0>0       -0.0073
     11  C6        -0.1540   27.1730   53.8720 C.ar    0  <0>0       -0.0090
     12  C8         0.4530   27.3740   55.2370 C.3     0  <0>0        0.0323
     13  C11       -1.9030   29.6360   56.7020 C.ar    0  <0>0        0.0059
     14  C16       -0.9080   29.6850   57.6600 C.ar    0  <0>0       -0.0022
     15  C15       -0.8460   28.7130   58.6410 C.ar    0  <0>0       -0.0045
     16  C14       -1.7780   27.6910   58.6630 C.ar    0  <0>0       -0.0225
     17  C13       -2.7720   27.6430   57.7050 C.ar    0  <0>0       -0.0045
     18  C12       -2.8380   28.6190   56.7270 C.ar    0  <0>0       -0.0022
     19  C17       -1.7100   26.6320   59.7330 C.3     0  <0>0        0.0224
     20  C18       -3.0940   26.4480   60.3570 C.3     0  <0>0        0.0047
     21  C19       -1.2500   25.3110   59.1130 C.3     0  <0>0        0.0047
     22  O1        -3.0910   31.5490   55.8780 O.3     0  <0>0       -0.3783
     23  H25       -3.8890   31.6400   55.1260 H       0  <0>0        0.2109
@<TRIPOS>BOND
     1     9     8    1
     2     7     6   ar
     3     7     8   ar
     4     6     5   ar
     5     8    10   ar
     6     5     3    1
     7     5    11   ar
     8    10    11   ar
     9     3     4    1
    10     3     2    1
    11    11    12    1
    12     2     1    1
    13    23    22    1
    14     1    22    1
    15     1    13    1
    16    13    18   ar
    17    13    14   ar
    18    18    17   ar
    19    14    15   ar
    20    17    16   ar
    21    15    16   ar
    22    16    19    1
    23    21    19    1
    24    19    20    1
