@<TRIPOS>MOLECULE
ZINC37067695_replica-1.pdb
 19 19 0 0 0
SMALL
GASTEIGER

@<TRIPOS>ATOM
      1  C7        10.3680   35.7450   60.6060 C.ar    0  <0>0        0.0447
      2  C8        10.1470   34.9570   59.4830 C.ar    0  <0>0        0.0148
      3  C9         9.2080   35.3390   58.5460 C.ar    0  <0>0        0.0077
      4  C10        8.4840   36.5110   58.7250 C.ar    0  <0>0        0.0328
      5  C11        8.7060   37.3000   59.8480 C.ar    0  <0>0        0.0077
      6  C12        9.6420   36.9140   60.7870 C.ar    0  <0>0        0.0148
      7  N1        11.3200   35.3570   61.5570 N.pl3   0  <0>0       -0.3326
      8  H14       11.8270   36.0290   62.0370 H       0  <0>0        0.1468
      9  C6        11.5510   33.9350   61.8240 C.3     0  <0>0        0.0870
     10  C4        12.4020   33.7850   63.0860 C.3     0  <0>0        0.0195
     11  C5        12.6230   35.1610   63.7170 C.3     0  <0>0        0.0017
     12  C3        13.7540   33.1710   62.7190 C.3     0  <0>0        0.0017
     13  C2        14.0570   32.0040   63.6610 C.3     0  <0>0        0.0001
     14  C1        13.0450   30.8810   63.4250 C.3     0  <0>0        0.0000
     15  S1         7.2870   37.0000   57.5290 S.3     0  <0>0       -0.0144
     16  C13        7.8310   38.6510   57.0120 C.3     0  <0>0        0.4477
     17  F1         7.4550   39.5900   57.9790 F       0  <0>0       -0.1600
     18  F2         9.2230   38.6600   56.8700 F       0  <0>0       -0.1600
     19  F3         7.2370   38.9770   55.7890 F       0  <0>0       -0.1600
@<TRIPOS>BOND
     1    19    16    1
     2    18    16    1
     3    16    15    1
     4    16    17    1
     5    15     4    1
     6     3     4   ar
     7     3     2   ar
     8     4     5   ar
     9     2     1   ar
    10     5     6   ar
    11     1     6   ar
    12     1     7    1
    13     7     9    1
    14     7     8    1
    15     9    10    1
    16    12    10    1
    17    12    13    1
    18    10    11    1
    19    14    13    1
