@<TRIPOS>MOLECULE
ZINC27799331_replica-1.pdb
 31 32 0 0 0
SMALL
GASTEIGER

@<TRIPOS>ATOM
      1  C9         7.8830   36.1220   58.2650 C.3     0  <0>0        0.1491
      2  N1         6.6910   35.2940   58.4670 N.am    0  <0>0       -0.2948
      3  C8         5.7340   35.6880   59.3310 C.2     0  <0>0        0.2458
      4  O1         5.8160   36.7720   59.8740 O.2     0  <0>0       -0.2701
      5  H9         6.5760   34.3500   57.9140 H       0  <0>0        0.1501
      6  C7         4.5860   34.8020   59.6180 C.ar    0  <0>0        0.0494
      7  C2         3.4060   34.9250   58.8830 C.ar    0  <0>0       -0.0175
      8  C1         3.2990   35.9610   57.7940 C.3     0  <0>0        0.0312
      9  C3         2.3380   34.0950   59.1560 C.ar    0  <0>0       -0.0041
     10  C4         2.4350   33.1430   60.1550 C.ar    0  <0>0       -0.0003
     11  C5         3.6030   33.0160   60.8880 C.ar    0  <0>0        0.0001
     12  C6         4.6790   33.8360   60.6210 C.ar    0  <0>0        0.0042
     13  C10        8.2910   36.0750   56.7910 C.3     0  <0>0        0.0290
     14  C11        8.1080   37.4610   56.1670 C.3     0  <0>0        0.0021
     15  C12        6.6440   37.6480   55.7640 C.3     0  <0>0        0.0001
     16  C13        8.4970   38.5340   57.1860 C.3     0  <0>0        0.0001
     17  C14        9.0090   35.5960   59.1170 C.2     0  <0>0        0.2440
     18  O2         9.9410   35.0170   58.6010 O.2     0  <0>0       -0.2730
     19  N2         8.9820   35.7720   60.4530 N.am    0  <0>0       -0.2826
     20  H19        8.1010   36.2270   60.9290 H       0  <0>0        0.1549
     21  C15       10.0740   35.3750   61.2350 C.ar    0  <0>0        0.0505
     22  C20       10.3810   34.0280   61.3670 C.ar    0  <0>0        0.0178
     23  C19       11.4580   33.6380   62.1380 C.ar    0  <0>0        0.0385
     24  C18       12.2340   34.5910   62.7810 C.ar    0  <0>0        0.1469
     25  C17       11.9270   35.9380   62.6500 C.ar    0  <0>0        0.0385
     26  C16       10.8540   36.3300   61.8740 C.ar    0  <0>0        0.0178
     27  O3        13.2940   34.2070   63.5400 O.3     0  <0>0       -0.4045
     28  C21       14.3970   33.6070   62.8580 C.3     0  <0>0        0.5753
     29  F1        15.5910   33.9860   63.4810 F       0  <0>0       -0.1328
     30  F2        14.2700   32.2150   62.9000 F       0  <0>0       -0.1328
     31  F3        14.4100   34.0340   61.5260 F       0  <0>0       -0.1328
@<TRIPOS>BOND
     1    15    14    1
     2    14    13    1
     3    14    16    1
     4    13     1    1
     5     8     7    1
     6     5     2    1
     7     1     2    1
     8     1    17    1
     9     2     3   am
    10    18    17    2
    11     7     9   ar
    12     7     6   ar
    13    17    19   am
    14     9    10   ar
    15     3     6    1
    16     3     4    2
    17     6    12   ar
    18    10    11   ar
    19    19    20    1
    20    19    21    1
    21    12    11   ar
    22    21    22   ar
    23    21    26   ar
    24    22    23   ar
    25    31    28    1
    26    26    25   ar
    27    23    24   ar
    28    25    24   ar
    29    24    27    1
    30    28    30    1
    31    28    29    1
    32    28    27    1
