@<TRIPOS>MOLECULE
ZINC66507641_replica-1.pdb
 22 22 0 0 0
SMALL
GASTEIGER

@<TRIPOS>ATOM
      1  C7         6.4910   35.2530   55.8320 C.2     0  <0>0        0.1979
      2  O1         6.2210   35.4210   54.5270 O.2     0  <0>0       -0.2895
      3  C8         6.9660   36.2950   56.5710 C.2     0  <0>0        0.1569
      4  C9         7.0700   37.5980   55.9860 C.1     0  <0>0        0.1080
      5  N1         7.1510   38.6320   55.5210 N.1     0  <0>0       -0.1906
      6  C10        7.3740   36.0810   57.9670 C.2     0  <0>0        0.2584
      7  O2         6.5330   36.0390   58.8450 O.2     0  <0>0       -0.2693
      8  N2         8.6780   35.9340   58.2730 N.am    0  <0>0       -0.3019
      9  H14        9.3470   35.9670   57.5720 H       0  <0>0        0.1497
     10  C11        9.0840   35.7210   59.6650 C.3     0  <0>0        0.0719
     11  C16       10.3130   34.8110   59.7040 C.3     0  <0>0        0.0196
     12  C15       10.7370   34.5880   61.1580 C.3     0  <0>0        0.0017
     13  C14       11.0770   35.9340   61.8010 C.3     0  <0>0        0.0001
     14  C13        9.8480   36.8440   61.7610 C.3     0  <0>0        0.0017
     15  C12        9.4250   37.0670   60.3080 C.3     0  <0>0        0.0196
     16  C6         6.2670   33.9110   56.4800 C.3     0  <0>0        0.1273
     17  S1         4.5240   33.4380   56.3090 S.3     0  <0>0       -0.1320
     18  C5         3.7040   34.2760   57.6930 C.3     0  <0>0        0.0580
     19  C4         3.1800   35.6360   57.2290 C.3     0  <0>0        0.0117
     20  C2         1.8550   35.9390   57.9310 C.3     0  <0>0        0.0009
     21  C1         0.6970   35.6940   56.9610 C.3     0  <0>0        0.0000
     22  C3         1.7020   35.0260   59.1480 C.3     0  <0>0        0.0000
@<TRIPOS>BOND
     1     2     1    1
     2     5     4    3
     3     1    16    1
     4     1     3    2
     5     4     3    1
     6    17    16    1
     7    17    18    1
     8     3     6    1
     9    21    20    1
    10    19    18    1
    11    19    20    1
    12     9     8    1
    13    20    22    1
    14     6     8   am
    15     6     7    2
    16     8    10    1
    17    10    11    1
    18    10    15    1
    19    11    12    1
    20    15    14    1
    21    12    13    1
    22    14    13    1
