@<TRIPOS>MOLECULE
ZINC40224733_replica-1.pdb
 23 25 0 0 0
SMALL
GASTEIGER

@<TRIPOS>ATOM
      1  C10        9.6730   36.6910   60.2810 C.3     0  <0>0        0.0253
      2  C9        10.4430   36.0800   61.4540 C.3     0  <0>0        0.0491
      3  C8        11.1150   34.7830   61.0010 C.3     0  <0>0        0.2055
      4  O1        10.7610   33.7260   61.8940 O.3     0  <0>0       -0.4755
      5  C6        11.7790   33.0700   62.5090 C.ar    0  <0>0        0.1379
      6  C5        11.5830   31.7880   63.0030 C.ar    0  <0>0        0.0326
      7  C4        12.6200   31.1240   63.6280 C.ar    0  <0>0       -0.0192
      8  C3        13.8540   31.7340   63.7620 C.ar    0  <0>0       -0.0083
      9  C20       12.4080   29.7310   64.1650 C.3     0  <0>0        0.0311
     10  C2        14.0520   33.0110   63.2700 C.ar    0  <0>0       -0.0192
     11  C1        15.3970   33.6740   63.4180 C.3     0  <0>0        0.0311
     12  C7        13.0160   33.6820   62.6500 C.ar    0  <0>0        0.0326
     13  C11        8.3630   35.9260   60.0790 C.3     0  <0>0        0.0936
     14  N1         8.2150   35.5790   58.6630 N.pl3   0  <0>0       -0.2789
     15  C14        7.9270   36.4520   57.6320 C.3     0  <0>0        0.1496
     16  C13        7.8880   35.6720   56.4640 C.2     0  <0>0        0.1324
     17  C15        7.6960   37.8180   57.5580 C.2     0  <0>0        0.0004
     18  N2         8.1410   34.3900   56.8350 N.2     0  <0>0       -0.3938
     19  C18        7.6160   36.2840   55.2370 C.2     0  <0>0        0.0296
     20  C12        8.3330   34.3370   58.1210 C.2     0  <0>0        0.1606
     21  C19        8.6410   33.0820   58.8970 C.3     0  <0>0        0.0836
     22  C17        7.3850   37.6300   55.1850 C.2     0  <0>0        0.0021
     23  C16        7.4260   38.4010   56.3380 C.2     0  <0>0       -0.0024
@<TRIPOS>BOND
     1    22    19    2
     2    22    23    1
     3    19    16    1
     4    23    17    2
     5    16    18    2
     6    16    15    1
     7    18    20    2
     8    17    15    1
     9    15    14    1
    10    20    14    1
    11    20    21    1
    12    14    13    1
    13    13     1    1
    14     1     2    1
    15     3     2    1
    16     3     4    1
    17     4     5    1
    18     5    12   ar
    19     5     6   ar
    20    12    10   ar
    21     6     7   ar
    22    10    11    1
    23    10     8   ar
    24     7     8   ar
    25     7     9    1
