@<TRIPOS>MOLECULE
ZINC60375937_replica-1.pdb
 22 24 0 0 0
SMALL
GASTEIGER

@<TRIPOS>ATOM
      1  C1         7.6680   39.0160   58.3890 C.3     0  <0>0        0.0342
      2  C2         7.9460   37.5460   58.0650 C.3     0  <0>0        0.1522
      3  C3         6.6480   36.7730   57.9370 C.2     0  <0>0        0.2531
      4  O1         5.8060   36.6070   58.7940 O.2     0  <0>0       -0.2723
      5  N1         6.6240   36.3100   56.6720 N.am    0  <0>0       -0.2079
      6  C4         7.7140   36.6780   55.9900 C.2     0  <0>0        0.3106
      7  O2         7.9190   36.3800   54.8300 O.2     0  <0>0       -0.2521
      8  N2         8.5600   37.4160   56.7320 N.am    0  <0>0       -0.2802
      9  H4         9.4070   37.7900   56.4460 H       0  <0>0        0.1516
     10  C10        8.8310   36.9310   59.1190 C.ar    0  <0>0        0.0320
     11  S2         9.5750   35.3080   59.1530 S.2     0  <0>0       -0.0825
     12  C13       10.4220   35.4530   60.7180 C.ar    0  <0>0        0.0636
     13  C12       10.0790   36.7060   61.1080 C.ar    0  <0>0        0.0135
     14 Br         11.5080   34.1850   61.6070 Br      0  <0>0       -0.0419
     15  C11        9.2640   37.4630   60.2870 C.ar    0  <0>0        0.0052
     16  C5         5.5370   35.5020   56.1120 C.3     0  <0>0        0.1355
     17  C6         5.6900   34.0730   56.5650 C.ar    0  <0>0        0.0285
     18  S1         7.0900   32.9800   56.3850 S.2     0  <0>0       -0.0782
     19  C9         6.3950   31.5460   57.1900 C.ar    0  <0>0        0.0867
     20  C8         5.1580   31.9870   57.5290 C.ar    0  <0>0        0.0182
     21 Cl          7.1140   29.9890   57.4610 Cl      0  <0>0       -0.0752
     22  C7         4.7980   33.2820   57.2080 C.ar    0  <0>0        0.0053
@<TRIPOS>BOND
     1     7     6    2
     2     6     5   am
     3     6     8   am
     4    16    17    1
     5    16     5    1
     6    18    17   ar
     7    18    19   ar
     8     9     8    1
     9    17    22   ar
    10     5     3   am
    11     8     2    1
    12    19    21    1
    13    19    20   ar
    14    22    20   ar
    15     3     2    1
    16     3     4    2
    17     2     1    1
    18     2    10    1
    19    10    11   ar
    20    10    15   ar
    21    11    12   ar
    22    15    13   ar
    23    12    13   ar
    24    12    14    1
