@<TRIPOS>MOLECULE
ZINC16756350_replica-1.pdb
 23 26 0 0 0
SMALL
GASTEIGER

@<TRIPOS>ATOM
      1  C9         8.1280   34.5880   59.8190 C.ar    0  <0>0       -0.0142
      2  C10        8.3010   33.2630   60.2140 C.ar    0  <0>0       -0.0021
      3  C11        9.4300   32.8960   60.9150 C.ar    0  <0>0        0.0172
      4  C12       10.3900   33.8480   61.2370 C.ar    0  <0>0        0.0641
      5  C13       10.2160   35.1720   60.8480 C.ar    0  <0>0        0.0172
      6  C14        9.0910   35.5420   60.1430 C.ar    0  <0>0       -0.0021
      7  C6         6.9160   34.9830   59.0600 C.3     0  <0>0        0.0668
      8  C5         7.0310   35.7360   57.8850 C.2     0  <0>0       -0.0150
      9  C4         5.9370   36.1150   57.1760 C.2     0  <0>0        0.0286
     10  C3         4.6370   35.7610   57.6030 C.2     0  <0>0        0.1370
     11  N1         3.4490   36.0460   57.0310 N.2     0  <0>0       -0.3993
     12  C8         4.5460   35.0000   58.7930 C.2     0  <0>0        0.0574
     13  C2         2.3140   35.6530   57.5380 C.2     0  <0>0        0.1389
     14  C1         0.9220   35.8960   57.0130 C.3     0  <0>0        0.0739
     15  S1         2.7920   34.7820   58.9620 S.3     0  <0>0       -0.0575
     16  C7         5.6500   34.6170   59.5100 C.2     0  <0>0       -0.0086
     17  N2        11.5320   33.4750   61.9530 N.ar    0  <0>0       -0.3034
     18  C19       12.6070   34.3050   61.9700 C.ar    0  <0>0        0.0834
     19  C18       13.7240   33.9720   62.6530 C.ar    0  <0>0        0.0610
     20  C17       13.7650   32.7440   63.3550 C.ar    0  <0>0        0.1987
     21  C16       12.6290   31.9020   63.3180 C.ar    0  <0>0        0.0610
     22  O1        14.7630   32.4180   63.9820 O.2     0  <0>0       -0.2865
     23  C15       11.5400   32.2920   62.6220 C.ar    0  <0>0        0.0834
@<TRIPOS>BOND
     1    14    13    1
     2    11    13    2
     3    11    10    2
     4     9    10    1
     5     9     8    2
     6    13    15    1
     7    10    12    1
     8     8     7    1
     9    12    15    1
    10    12    16    2
    11     7    16    1
    12     7     1    1
    13     1     6   ar
    14     1     2   ar
    15     6     5   ar
    16     2     3   ar
    17     5     4   ar
    18     3     4   ar
    19     4    17    1
    20    17    18   ar
    21    17    23   ar
    22    18    19   ar
    23    23    21   ar
    24    19    20   ar
    25    21    20   ar
    26    20    22    2
