@<TRIPOS>MOLECULE
ZINC23436992_replica-1.pdb
 32 35 0 0 0
SMALL
GASTEIGER

@<TRIPOS>ATOM
      1  C7        11.4040   35.2450   61.8290 C.ar    0  <0>0        0.0534
      2  C8        10.7790   36.4950   61.8820 C.ar    0  <0>0        0.0046
      3  C9         9.8910   36.8590   60.9040 C.ar    0  <0>0        0.0016
      4  C10        9.6080   35.9810   59.8540 C.ar    0  <0>0        0.0171
      5  C11       10.2280   34.7300   59.8040 C.ar    0  <0>0        0.0016
      6  C12       11.1220   34.3680   60.7780 C.ar    0  <0>0        0.0046
      7  C13        8.6500   36.3730   58.8000 C.ar    0  <0>0        0.0754
      8  N3         8.5100   37.6190   58.2600 N.ar    0  <0>0       -0.2757
      9  N2         7.4990   37.5590   57.2930 N.ar    0  <0>0       -0.1727
     10  H2         9.1450   38.4450   58.6120 H       0  <0>0        0.1889
     11  C15        7.0330   36.3260   57.2510 C.ar    0  <0>0        0.1021
     12  C14        7.7430   35.5550   58.1890 C.ar    0  <0>0        0.0393
     13  C16        5.9520   35.8360   56.3650 C.ar    0  <0>0        0.0194
     14  C21        4.6240   35.7400   56.8420 C.ar    0  <0>0        0.0015
     15  C20        3.6080   35.2680   55.9750 C.ar    0  <0>0        0.0000
     16  C22        4.2960   36.1050   58.1570 C.ar    0  <0>0        0.0000
     17  C19        3.9360   34.9040   54.6580 C.ar    0  <0>0        0.0000
     18  C25        2.2870   35.1790   56.4480 C.ar    0  <0>0        0.0000
     19  C18        5.2220   35.0060   54.2230 C.ar    0  <0>0        0.0000
     20  C17        6.2320   35.4670   55.0610 C.ar    0  <0>0        0.0016
     21  C24        2.0060   35.5350   57.7310 C.ar    0  <0>0        0.0000
     22  C23        3.0060   35.9990   58.5820 C.ar    0  <0>0        0.0000
     23  C6        12.3610   34.8530   62.8820 C.2     0  <0>0        0.2459
     24  N1        13.1800   33.8010   62.6900 N.am    0  <0>0       -0.3000
     25  H13       13.1360   33.2340   61.7480 H       0  <0>0        0.1498
     26  O2        12.4090   35.4790   63.9230 O.2     0  <0>0       -0.2701
     27  C3        14.1300   33.4110   63.7360 C.3     0  <0>0        0.1014
     28  C2        15.5160   33.9680   63.3990 C.3     0  <0>0        0.0221
     29  C1        16.2890   34.2260   64.6940 C.3     0  <0>0        0.0018
     30  C4        14.2000   31.8860   63.8200 C.3     0  <0>0        0.1617
     31  O1        13.0100   31.3230   63.2600 O.3     0  <0>0       -0.3494
     32  C5        12.7690   29.9700   63.6480 C.3     0  <0>0        0.1742
@<TRIPOS>BOND
     1    19    17   ar
     2    19    20   ar
     3    17    15   ar
     4    20    13   ar
     5    15    18   ar
     6    15    14   ar
     7    13    14   ar
     8    13    11    1
     9    18    21   ar
    10    14    16   ar
    11    11     9   ar
    12    11    12   ar
    13     9     8   ar
    14    21    22   ar
    15    16    22   ar
    16    12     7   ar
    17     8    10    1
    18     8     7   ar
    19     7     4    1
    20     5     4   ar
    21     5     6   ar
    22     4     3   ar
    23     6     1   ar
    24     3     2   ar
    25    25    24    1
    26     1     2   ar
    27     1    23    1
    28    24    23   am
    29    24    27    1
    30    23    26    2
    31    31    32    1
    32    31    30    1
    33    28    27    1
    34    28    29    1
    35    27    30    1
