@<TRIPOS>MOLECULE
ZINC00047502_replica-1.pdb
 24 26 0 0 0
SMALL
GASTEIGER

@<TRIPOS>ATOM
      1  N1         0.8000   31.6860   55.5010 N.am    0  <0>0       -0.2676
      2  C7         0.4960   31.9320   56.7900 C.2     0  <0>0        0.3167
      3  O1        -0.4980   31.4380   57.2860 O.2     0  <0>0       -0.2515
      4  N2         1.2950   32.7260   57.5310 N.am    0  <0>0       -0.2010
      5  H5         1.5050   32.1890   55.0650 H       0  <0>0        0.1564
      6  C8         2.3860   33.3740   56.9360 C.ar    0  <0>0        0.0615
      7  C13        2.2530   34.6760   56.4730 C.ar    0  <0>0        0.0162
      8  C12        3.3300   35.3130   55.8880 C.ar    0  <0>0        0.0127
      9  C11        4.5400   34.6540   55.7610 C.ar    0  <0>0        0.0578
     10  C10        4.6750   33.3560   56.2220 C.ar    0  <0>0        0.0127
     11 Cl          5.8900   35.4560   55.0240 Cl      0  <0>0       -0.0822
     12  C9         3.6030   32.7170   56.8140 C.ar    0  <0>0        0.0162
     13  C14        1.0370   32.9010   58.8800 C.ar    0  <0>0        0.1739
     14  S1         1.5430   31.8350   60.2150 S.2     0  <0>0       -0.0502
     15  C16        0.8140   32.7670   61.6170 C.ar    0  <0>0        0.0588
     16  C15        0.1730   33.9480   60.8550 C.ar    0  <0>0        0.1079
     17  N3         0.3840   33.8740   59.4280 N.ar    0  <0>0       -0.2219
     18  C6         0.0970   30.7050   54.7910 C.ar    0  <0>0        0.0517
     19  C1         0.5700   29.4010   54.7520 C.ar    0  <0>0        0.0170
     20  C2        -0.1260   28.4350   54.0540 C.ar    0  <0>0        0.0309
     21  C3        -1.2920   28.7670   53.3850 C.ar    0  <0>0        0.1402
     22  C4        -1.7640   30.0690   53.4180 C.ar    0  <0>0        0.0309
     23  F1        -1.9700   27.8210   52.6990 F       0  <0>0       -0.2042
     24  C5        -1.0720   31.0380   54.1190 C.ar    0  <0>0        0.0170
@<TRIPOS>BOND
     1    23    21    1
     2    21    22   ar
     3    21    20   ar
     4    22    24   ar
     5    20    19   ar
     6    24    18   ar
     7    19    18   ar
     8    18     1    1
     9    11     9    1
    10     5     1    1
    11     1     2   am
    12     9     8   ar
    13     9    10   ar
    14     8     7   ar
    15    10    12   ar
    16     7     6   ar
    17     2     3    2
    18     2     4   am
    19    12     6   ar
    20     6     4    1
    21     4    13    1
    22    13    17   ar
    23    13    14   ar
    24    17    16   ar
    25    14    15   ar
    26    16    15   ar
