@<TRIPOS>MOLECULE
ZINC14545890_replica-1.pdb
 35 39 0 0 0
SMALL
GASTEIGER

@<TRIPOS>ATOM
      1  C9         0.6980   31.4530   56.9820 C.ar    0  <0>0        0.1249
      2  C10        0.6660   31.4880   58.3640 C.ar    0  <0>0        0.0214
      3  C11        1.4110   32.4240   59.0520 C.ar    0  <0>0        0.0154
      4  C12        2.1990   33.3370   58.3620 C.ar    0  <0>0        0.0408
      5  C13        2.2160   33.3050   56.9630 C.ar    0  <0>0       -0.0080
      6  C14        1.4780   32.3580   56.2860 C.ar    0  <0>0        0.0171
      7  C15        3.0300   34.3240   56.2670 C.3     0  <0>0        0.0255
      8  C16        3.5780   34.0990   54.9050 C.3     0  <0>0        0.0045
      9  C17        4.7230   34.7610   54.7940 C.3     0  <0>0        0.0004
     10  C18        5.0500   35.4660   56.1120 C.3     0  <0>0        0.0023
     11  C19        4.3040   34.5880   57.1250 C.3     0  <0>0        0.0263
     12  C20        3.8070   35.2620   58.3910 C.3     0  <0>0        0.0950
     13  N2         2.9740   34.2540   59.0820 N.pl3   0  <0>0       -0.3308
     14  H21        2.9650   34.2280   60.0510 H       0  <0>0        0.1471
     15  S1        -0.2460   30.2480   56.1080 S.O2    0  <0>0        0.0736
     16  O1        -1.3390   30.9380   55.5200 O.2     0  <0>0       -0.1499
     17  O2        -0.4250   29.1520   56.9950 O.2     0  <0>0       -0.1499
     18  N1         0.6950   29.6990   54.8610 N.pl3   0  <0>0       -0.2150
     19  H13        1.4990   30.1820   54.6120 H       0  <0>0        0.1737
     20  C5         0.3330   28.5420   54.1680 C.ar    0  <0>0        0.0644
     21  C4         0.8000   27.3040   54.5890 C.ar    0  <0>0        0.0155
     22  C3         0.4390   26.1620   53.9020 C.ar    0  <0>0       -0.0033
     23  C2        -0.3860   26.2500   52.7950 C.ar    0  <0>0       -0.0257
     24  C1        -0.7770   25.0010   52.0470 C.3     0  <0>0        0.0307
     25  C7        -0.8510   27.4810   52.3720 C.ar    0  <0>0       -0.0245
     26  C6        -0.4900   28.6290   53.0520 C.ar    0  <0>0        0.0113
     27  C8        -1.7490   27.5730   51.1660 C.3     0  <0>0        0.0307
     28  C21        4.9720   35.6620   59.2590 C.ar    0  <0>0        0.0294
     29  C26        5.8440   34.6960   59.7400 C.ar    0  <0>0        0.1362
     30  C25        6.9180   35.0690   60.5360 C.ar    0  <0>0        0.0366
     31  C24        7.1110   36.3980   60.8550 C.ar    0  <0>0        0.0031
     32  C23        6.2380   37.3590   60.3790 C.ar    0  <0>0       -0.0001
     33  C22        5.1690   36.9910   59.5820 C.ar    0  <0>0        0.0003
     34  O3         5.6480   33.3880   59.4290 O.3     0  <0>0       -0.4717
     35  C27        5.6550   32.4550   60.5120 C.3     0  <0>0        0.2525
@<TRIPOS>BOND
     1    27    25    1
     2    24    23    1
     3    25    23   ar
     4    25    26   ar
     5    23    22   ar
     6    26    20   ar
     7    22    21   ar
     8    20    21   ar
     9    20    18    1
    10    19    18    1
    11     9     8    1
    12     9    10    1
    13    18    15    1
    14     8     7    1
    15    16    15    2
    16    15     1    1
    17    15    17    2
    18    10    11    1
    19     7     5    1
    20     7    11    1
    21     6     5   ar
    22     6     1   ar
    23     5     4   ar
    24     1     2   ar
    25    11    12    1
    26     4     3   ar
    27     4    13    1
    28     2     3   ar
    29    12    13    1
    30    12    28    1
    31    13    14    1
    32    28    33   ar
    33    28    29   ar
    34    34    29    1
    35    34    35    1
    36    33    32   ar
    37    29    30   ar
    38    32    31   ar
    39    30    31   ar
