@<TRIPOS>MOLECULE
ZINC37104253_replica-1.pdb
 19 20 0 0 0
SMALL
GASTEIGER

@<TRIPOS>ATOM
      1  C7         0.0190   30.1290   54.7780 C.ar    0  <0>0        0.0461
      2  C8        -1.0390   30.9760   54.4650 C.ar    0  <0>0        0.0144
      3  C9        -2.0110   30.5660   53.5730 C.ar    0  <0>0        0.0028
      4  C10       -1.9360   29.3150   52.9900 C.ar    0  <0>0        0.0176
      5  C11       -0.8820   28.4660   53.2990 C.ar    0  <0>0        0.0653
      6  C12        0.1000   28.8760   54.1890 C.ar    0  <0>0        0.0318
      7  N1         1.0020   30.5440   55.6800 N.pl3   0  <0>0       -0.3340
      8  H14        1.8440   30.8940   55.3510 H       0  <0>0        0.1468
      9  C2         0.7610   30.4480   57.1220 C.3     0  <0>0        0.0691
     10  C1        -0.1890   31.5670   57.5550 C.3     0  <0>0        0.0212
     11  C3         0.1330   29.0910   57.4460 C.3     0  <0>0        0.0195
     12  C4        -1.2410   29.3050   58.0850 C.3     0  <0>0        0.0016
     13  C5        -2.3260   28.7520   57.1590 C.3     0  <0>0        0.0001
     14  C6        -1.2970   28.5760   59.4290 C.3     0  <0>0        0.0001
     15  N2        -0.8070   27.1970   52.7080 N.ar    0  <0>0       -0.3035
     16  C16       -0.1650   26.1100   53.2310 C.ar    0  <0>0        0.0802
     17  C15       -0.3180   25.0790   52.3760 C.ar    0  <0>0        0.0205
     18  C14       -1.0740   25.5450   51.2810 C.ar    0  <0>0        0.0205
     19  C13       -1.3600   26.8430   51.5100 C.ar    0  <0>0        0.0802
@<TRIPOS>BOND
     1    18    19   ar
     2    18    17   ar
     3    19    15   ar
     4    17    16   ar
     5    15    16   ar
     6    15     5    1
     7     4     5   ar
     8     4     3   ar
     9     5     6   ar
    10     3     2   ar
    11     6     1   ar
    12     2     1   ar
    13     1     7    1
    14     8     7    1
    15     7     9    1
    16     9    11    1
    17     9    10    1
    18    13    12    1
    19    11    12    1
    20    12    14    1
