@<TRIPOS>MOLECULE
ZINC41127758_replica-1.pdb
 25 27 0 0 0
SMALL
GASTEIGER

@<TRIPOS>ATOM
      1  N2         7.5280   37.7350   60.8800 N.pl3   0  <0>0       -0.2392
      2  H13        7.3330   38.6600   61.1000 H       0  <0>0        0.1741
      3  N1         8.5590   37.0600   61.5430 N.2     0  <0>0       -0.1800
      4  C10        9.6200   36.6930   60.8900 C.2     0  <0>0        0.1175
      5  C7        10.7060   35.9810   61.5890 C.ar    0  <0>0        0.0209
      6  C6        11.1720   34.7590   61.0980 C.ar    0  <0>0        0.0047
      7  C5        12.1870   34.0960   61.7540 C.ar    0  <0>0        0.0369
      8  C4        12.7480   34.6430   62.9010 C.ar    0  <0>0        0.1386
      9  C9        12.2840   35.8550   63.3960 C.ar    0  <0>0        0.0369
     10  C8        11.2730   36.5260   62.7440 C.ar    0  <0>0        0.0047
     11  O1        13.7480   33.9870   63.5440 O.3     0  <0>0       -0.4755
     12  C3        14.2050   32.7660   62.9590 C.3     0  <0>0        0.2054
     13  C2        13.9320   31.6060   63.9190 C.3     0  <0>0        0.0473
     14  C1        12.7310   30.8020   63.4170 C.3     0  <0>0        0.0040
     15  C11        6.7840   37.0830   59.9090 C.2     0  <0>0        0.0553
     16  C15        6.9970   37.3380   58.5330 C.3     0  <0>0        0.1115
     17  C14        6.2160   36.6410   57.5800 C.2     0  <0>0        0.1176
     18  C16        7.9630   38.2550   58.1010 C.2     0  <0>0       -0.0137
     19  N3         5.2880   35.7670   57.9860 N.2     0  <0>0       -0.4098
     20  C19        6.4270   36.8880   56.2130 C.2     0  <0>0        0.0282
     21  C13        5.0780   35.5270   59.2600 C.2     0  <0>0        0.1100
     22  C12        5.8050   36.1630   60.2560 C.2     0  <0>0        0.0399
     23  C20        4.0180   34.5290   59.6520 C.3     0  <0>0        0.0664
     24  C18        7.3670   37.7940   55.8270 C.2     0  <0>0        0.0020
     25  C17        8.1380   38.4730   56.7670 C.2     0  <0>0       -0.0037
@<TRIPOS>BOND
     1    24    20    2
     2    24    25    1
     3    20    17    1
     4    25    18    2
     5    17    19    2
     6    17    16    1
     7    19    21    2
     8    18    16    1
     9    16    15    1
    10    21    23    1
    11    21    22    1
    12    15    22    2
    13    15     1    1
    14     1     2    1
    15     1     3    1
    16     4     3    2
    17     4     5    1
    18     6     5   ar
    19     6     7   ar
    20     5    10   ar
    21     7     8   ar
    22    10     9   ar
    23     8     9   ar
    24     8    11    1
    25    12    11    1
    26    12    13    1
    27    14    13    1
