@<TRIPOS>MOLECULE
ZINC13311620_replica-1.pdb
 25 26 0 0 0
SMALL
GASTEIGER

@<TRIPOS>ATOM
      1  N1         7.7930   35.6510   58.4840 N.3     0  <0>0       -0.1762
      2  H18        7.2300   35.2830   59.1830 H       0  <0>0        0.1491
      3  C9         8.7680   36.6970   58.8030 C.3     0  <0>0        0.0976
      4  C6         9.7010   36.2030   59.8780 C.ar    0  <0>0       -0.0065
      5  C5        10.2790   34.9510   59.7710 C.ar    0  <0>0       -0.0033
      6  C4        11.1340   34.4980   60.7570 C.ar    0  <0>0       -0.0045
      7  C3        11.4150   35.2960   61.8500 C.ar    0  <0>0       -0.0222
      8  C8        10.8380   36.5480   61.9570 C.ar    0  <0>0       -0.0045
      9  C7         9.9850   37.0030   60.9690 C.ar    0  <0>0       -0.0033
     10  C2        12.3490   34.8020   62.9250 C.3     0  <0>0        0.0264
     11  C1        13.5650   34.1370   62.2770 C.3     0  <0>0        0.0050
     12  C10        8.0350   37.9450   59.2990 C.3     0  <0>0        0.0202
     13  C11        7.8860   38.9400   58.1470 C.3     0  <0>0        0.0018
     14  C12        6.6490   37.5500   59.8150 C.3     0  <0>0        0.0018
     15  S1         7.6510   35.0980   56.9300 S.O2    0  <0>0        0.0662
     16  O1         7.9170   33.7030   56.9690 O.2     0  <0>0       -0.1525
     17  O2         8.3910   35.9930   56.1100 O.2     0  <0>0       -0.1525
     18  C13        5.9600   35.2750   56.4670 C.ar    0  <0>0        0.1516
     19  S2         5.2250   35.0800   54.8560 S.2     0  <0>0       -0.0666
     20  C16        3.5740   35.4160   55.2500 C.ar    0  <0>0        0.0433
     21  C15        3.6180   35.6690   56.6070 C.ar    0  <0>0        0.0881
     22  C14        4.9060   35.5900   57.2460 C.ar    0  <0>0        0.0337
     23  C17        2.4030   36.0060   57.3650 C.2     0  <0>0        0.3883
     24  O3         1.3270   36.0450   56.8000 O.co2   0  <0>0       -0.2405
     25  O4         2.4830   36.2700   58.6840 O.co2   0  <0>0       -0.2405
@<TRIPOS>BOND
     1    19    20   ar
     2    19    18   ar
     3    20    21   ar
     4    17    15    2
     5    18    15    1
     6    18    22   ar
     7    21    22   ar
     8    21    23    1
     9    24    23   ar
    10    15    16    2
    11    15     1    1
    12    23    25   ar
    13    13    12    1
    14     1     3    1
    15     1     2    1
    16     3    12    1
    17     3     4    1
    18    12    14    1
    19     5     4   ar
    20     5     6   ar
    21     4     9   ar
    22     6     7   ar
    23     9     8   ar
    24     7     8   ar
    25     7    10    1
    26    11    10    1
