@<TRIPOS>MOLECULE
ZINC39359447_replica-1.pdb
 27 31 0 0 0
SMALL
GASTEIGER

@<TRIPOS>ATOM
      1  C6         7.6990   34.8820   56.9590 C.3     0  <0>0        0.0627
      2  C7         7.3700   36.2640   56.4780 C.3     0  <0>0        0.0868
      3  C8         6.3140   36.8250   55.9440 C.2     0  <0>0        0.0597
      4  N1         6.5050   38.1620   55.8120 N.2     0  <0>0       -0.1705
      5  N2         7.6210   38.5590   56.1700 N.pl3   0  <0>0       -0.1253
      6  C9         8.4030   37.3910   56.5820 C.3     0  <0>0        0.1909
      7  N3         8.7550   37.4160   58.0040 N.pl3   0  <0>0       -0.3194
      8  C10        8.9480   36.2330   58.6730 C.2     0  <0>0        0.0222
      9  C11        8.4930   35.0350   58.2470 C.2     0  <0>0        0.0262
     10  C12        8.7310   33.8580   58.9760 C.2     0  <0>0        0.1707
     11  O1         8.2920   32.8030   58.5620 O.2     0  <0>0       -0.2916
     12  C13        9.5180   33.8730   60.2570 C.3     0  <0>0        0.0741
     13  C14       10.5100   35.0400   60.2080 C.3     0  <0>0        0.0417
     14  C15        9.7200   36.3340   59.9740 C.3     0  <0>0        0.0460
     15  C20        5.0640   36.0900   55.5340 C.3     0  <0>0        0.0491
     16  H9         8.8510   38.2620   58.4690 H       0  <0>0        0.1481
     17  C5         6.4290   34.1150   57.2250 C.ar    0  <0>0        0.0077
     18  C2         5.9080   33.0650   56.5450 C.ar    0  <0>0       -0.0190
     19  C1         6.6170   32.5070   55.3380 C.3     0  <0>0        0.0312
     20  C3         4.7190   32.5090   56.9790 C.ar    0  <0>0        0.0029
     21  C4         4.1070   33.0340   58.0680 C.ar    0  <0>0        0.0348
     22  S1         5.2210   34.3560   58.5160 S.2     0  <0>0       -0.0908
     23  C16       11.2550   35.1300   61.5150 C.ar    0  <0>0        0.0078
     24  S2        12.1750   33.8630   62.3740 S.2     0  <0>0       -0.0908
     25  C19       12.6930   34.8360   63.7790 C.ar    0  <0>0        0.0351
     26  C18       12.1340   36.0400   63.5060 C.ar    0  <0>0        0.0072
     27  C17       11.3960   36.1910   62.3460 C.ar    0  <0>0        0.0027
@<TRIPOS>BOND
     1    19    18    1
     2    15     3    1
     3     4     3    2
     4     4     5    1
     5     3     2    1
     6     5     6    1
     7     2     6    1
     8     2     1    1
     9    18    20   ar
    10    18    17   ar
    11     6     7    1
    12     1    17    1
    13     1     9    1
    14    20    21   ar
    15    17    22   ar
    16     7    16    1
    17     7     8    1
    18    21    22   ar
    19     9     8    2
    20     9    10    1
    21    11    10    2
    22     8    14    1
    23    10    12    1
    24    14    13    1
    25    13    12    1
    26    13    23    1
    27    23    27   ar
    28    23    24   ar
    29    27    26   ar
    30    24    25   ar
    31    26    25   ar
