@<TRIPOS>MOLECULE
ZINC02216927_replica-1.pdb
 29 33 0 0 0
SMALL
GASTEIGER

@<TRIPOS>ATOM
      1  C1        13.8310   31.8860   63.3370 C.3     0  <0>0        0.0540
      2  C2        12.8570   32.9460   62.8910 C.ar    0  <0>0        0.0813
      3  C3        12.9910   34.3230   63.1040 C.ar    0  <0>0        0.0321
      4  C4        11.9170   34.9360   62.5570 C.ar    0  <0>0        0.0745
      5  N1        11.1260   33.9740   62.0150 N.ar    0  <0>0       -0.1559
      6  N2        11.7400   32.7360   62.2460 N.ar    0  <0>0       -0.1593
      7  C5         9.9170   34.1810   61.3520 C.1     0  <0>0        0.2366
      8  N3         9.2520   33.1400   60.8740 N.2     0  <0>0       -0.3219
      9  C6         8.1070   33.3140   60.2430 C.2     0  <0>0        0.1625
     10  C7         7.5530   34.5970   60.0620 C.3     0  <0>0        0.1374
     11  C8         6.2800   34.6450   59.3400 C.2     0  <0>0       -0.0282
     12  C9         5.7640   33.4680   58.9310 C.2     0  <0>0        0.0023
     13  S1         6.9250   32.2420   59.4680 S.3     0  <0>0       -0.0631
     14  C10        4.4830   33.2490   58.1850 C.3     0  <0>0        0.0324
     15  C11        3.6470   34.5340   58.2690 C.3     0  <0>0        0.0055
     16  C12        4.5440   35.7280   57.9300 C.3     0  <0>0        0.0047
     17  C13        5.5520   35.9560   59.0570 C.3     0  <0>0        0.0231
     18  C14        8.3150   35.6750   60.5930 C.2     0  <0>0        0.1591
     19  N4         9.4550   35.4160   61.2130 N.2     0  <0>0       -0.3222
     20  C22       11.6470   36.4190   62.5500 C.3     0  <0>0        0.0531
     21  S2         7.7440   37.3340   60.4350 S.3     0  <0>0       -0.0803
     22  C15        8.8880   37.9430   59.1710 C.3     0  <0>0        0.0906
     23  C16        8.4290   37.4810   57.8120 C.ar    0  <0>0       -0.0108
     24  C21        7.5970   38.2850   57.0550 C.ar    0  <0>0       -0.0011
     25  C20        7.1750   37.8620   55.8090 C.ar    0  <0>0        0.0293
     26  C19        7.5840   36.6330   55.3200 C.ar    0  <0>0        0.1401
     27  C18        8.4160   35.8280   56.0800 C.ar    0  <0>0        0.0293
     28  F1         7.1720   36.2180   54.1020 F       0  <0>0       -0.2042
     29  C17        8.8380   36.2540   57.3260 C.ar    0  <0>0       -0.0011
@<TRIPOS>BOND
     1    28    26    1
     2    26    25   ar
     3    26    27   ar
     4    25    24   ar
     5    27    29   ar
     6    24    23   ar
     7    29    23   ar
     8    23    22    1
     9    16    15    1
    10    16    17    1
    11    14    15    1
    12    14    12    1
    13    12    11    2
    14    12    13    1
    15    17    11    1
    16    22    21    1
    17    11    10    1
    18    13     9    1
    19    10     9    1
    20    10    18    1
    21     9     8    2
    22    21    18    1
    23    18    19    2
    24     8     7    2
    25    19     7    2
    26     7     5    1
    27     5     6   ar
    28     5     4   ar
    29     6     2   ar
    30    20     4    1
    31     4     3   ar
    32     2     3   ar
    33     2     1    1
