@<TRIPOS>MOLECULE
ZINC65509384_replica-1.pdb
 26 29 0 0 0
SMALL
GASTEIGER

@<TRIPOS>ATOM
      1  C16        5.1100   36.0660   57.7710 C.2     0  <0>0        0.1835
      2  C17        4.9130   36.2360   56.4010 C.2     0  <0>0        0.0435
      3  C18        3.6460   36.0630   55.8720 C.2     0  <0>0       -0.0139
      4  C19        2.6090   35.7260   56.7290 C.3     0  <0>0        0.0960
      5  C20        2.8730   35.5710   58.0870 C.2     0  <0>0        0.1823
      6  N2         4.1030   35.7390   58.5620 N.2     0  <0>0       -0.3808
      7  C21        1.8100   35.2230   58.9810 C.1     0  <0>0        0.1287
      8  N3         0.9660   34.9470   59.6900 N.1     0  <0>0       -0.1885
      9  N1         6.3790   36.2370   58.3090 N.pl3   0  <0>0       -0.2811
     10  C13        6.5510   36.7870   59.6610 C.3     0  <0>0        0.0936
     11  C12        7.4190   35.8260   60.4780 C.3     0  <0>0        0.0283
     12  C11        8.7310   35.5700   59.7320 C.3     0  <0>0        0.0526
     13  C15        8.4320   34.9200   58.3790 C.3     0  <0>0        0.1342
     14  C14        7.5750   35.8710   57.5390 C.3     0  <0>0        0.1225
     15  C6         9.6020   34.6510   60.5490 C.ar    0  <0>0       -0.0200
     16  C5        10.7880   35.1080   61.0340 C.ar    0  <0>0       -0.0042
     17  C4        11.6030   34.2540   61.7980 C.ar    0  <0>0       -0.0003
     18  C3        12.8350   34.6900   62.3150 C.ar    0  <0>0       -0.0000
     19  C9        11.1740   32.9270   62.0490 C.ar    0  <0>0       -0.0000
     20  C2        13.5980   33.8350   63.0490 C.ar    0  <0>0       -0.0000
     21  C1        13.1760   32.5300   63.2960 C.ar    0  <0>0       -0.0000
     22  C10       11.9890   32.0720   62.8120 C.ar    0  <0>0       -0.0000
     23  C8         9.9430   32.4910   61.5310 C.ar    0  <0>0       -0.0003
     24  C7         9.1810   33.3460   60.7970 C.ar    0  <0>0       -0.0042
     25  O1         9.6590   34.6540   57.6970 O.3     0  <0>0       -0.3824
     26  H16        9.7760   33.7260   57.4460 H       0  <0>0        0.2104
@<TRIPOS>BOND
     1     3     2    2
     2     3     4    1
     3     2     1    1
     4     4     5    1
     5    26    25    1
     6    14     9    1
     7    14    13    1
     8    25    13    1
     9     1     9    1
    10     1     6    2
    11     5     6    2
    12     5     7    1
    13     9    10    1
    14    13    12    1
    15     7     8    3
    16    10    11    1
    17    12    11    1
    18    12    15    1
    19    15    24   ar
    20    15    16   ar
    21    24    23   ar
    22    16    17   ar
    23    23    19   ar
    24    17    19   ar
    25    17    18   ar
    26    19    22   ar
    27    18    20   ar
    28    22    21   ar
    29    20    21   ar
