@<TRIPOS>MOLECULE
ZINC02956249_replica-1.pdb
 26 29 0 0 0
SMALL
GASTEIGER

@<TRIPOS>ATOM
      1  C10       -0.1860   30.0810   56.0530 C.2     0  <0>0        0.1287
      2  C11        0.4760   29.5110   57.1050 C.3     0  <0>0        0.1249
      3  S1         0.5940   30.9050   58.2190 S.3     0  <0>0       -0.0594
      4  C12       -0.2410   32.0950   57.1810 C.2     0  <0>0        0.2111
      5  N1        -0.5290   31.3660   56.1190 N.2     0  <0>0       -0.3840
      6  C8        -0.5170   29.2780   54.8520 C.ar    0  <0>0        0.1024
      7  C7        -0.0770   27.9870   54.7370 C.ar    0  <0>0        0.0118
      8  C5        -0.4320   27.2390   53.5300 C.ar    0  <0>0        0.0350
      9  C4        -1.2070   27.8580   52.5330 C.ar    0  <0>0        0.1487
     10  C6        -0.0070   25.9160   53.3620 C.ar    0  <0>0        0.0030
     11  C3        -1.5400   27.1420   51.3890 C.ar    0  <0>0        0.0376
     12  O2        -1.6230   29.1340   52.6790 O.2     0  <0>0       -0.4210
     13  C2        -1.1110   25.8390   51.2440 C.ar    0  <0>0        0.0031
     14  C1        -0.3470   25.2310   52.2300 C.ar    0  <0>0        0.0002
     15  C9        -1.3240   29.8530   53.7720 C.ar    0  <0>0        0.3479
     16  O1        -1.7250   30.9990   53.8660 O.2     0  <0>0       -0.2444
     17  N2        -0.5150   33.4320   57.4260 N.pl3   0  <0>0       -0.2812
     18  H7        -1.4260   33.7590   57.3670 H       0  <0>0        0.1551
     19  C13        0.5230   34.3090   57.7570 C.ar    0  <0>0        0.0805
     20  C18        0.8030   34.5850   59.0920 C.ar    0  <0>0        0.1536
     21  C17        1.8340   35.4470   59.4170 C.ar    0  <0>0        0.0332
     22  F1         0.0710   34.0070   60.0690 F       0  <0>0       -0.2029
     23  C16        2.5790   36.0440   58.4170 C.ar    0  <0>0        0.0320
     24  C15        2.3010   35.7750   57.0880 C.ar    0  <0>0        0.1415
     25  C14        1.2740   34.9090   56.7550 C.ar    0  <0>0        0.0466
     26  F2         3.0320   36.3590   56.1130 F       0  <0>0       -0.2041
@<TRIPOS>BOND
     1    13    11   ar
     2    13    14   ar
     3    11     9   ar
     4    14    10   ar
     5     9    12   ar
     6     9     8   ar
     7    12    15   ar
     8    10     8   ar
     9     8     7   ar
    10    15    16    2
    11    15     6   ar
    12     7     6   ar
    13     6     1    1
    14     1     5    2
    15     1     2    1
    16    26    24    1
    17     5     4    2
    18    25    24   ar
    19    25    19   ar
    20    24    23   ar
    21     2     3    1
    22     4    17    1
    23     4     3    1
    24    18    17    1
    25    17    19    1
    26    19    20   ar
    27    23    21   ar
    28    20    21   ar
    29    20    22    1
