@<TRIPOS>MOLECULE
ZINC08769613_replica-1.pdb
 26 27 0 0 0
SMALL
GASTEIGER

@<TRIPOS>ATOM
      1  C9         7.4830   34.7110   59.2140 C.2     0  <0>0        0.2435
      2  O1         7.1670   34.3830   60.3420 O.2     0  <0>0       -0.2733
      3  N1         8.6830   35.2280   58.9860 N.am    0  <0>0       -0.1760
      4  C8         6.5100   34.5310   58.0770 C.3     0  <0>0        0.0874
      5  C6         7.2550   34.6500   56.7450 C.3     0  <0>0        0.0198
      6  C7         7.2210   33.3030   56.0210 C.3     0  <0>0        0.0011
      7  C5         6.5790   35.7140   55.8780 C.3     0  <0>0        0.1039
      8  C4         5.2240   36.0820   56.4850 C.3     0  <0>0        0.0113
      9  C3         4.1720   36.1570   55.3770 C.3     0  <0>0        0.0006
     10  C2         4.0470   34.7910   54.6990 C.3     0  <0>0        0.0000
     11  C1         3.4630   33.7820   55.6890 C.3     0  <0>0        0.0000
     12  C19        7.4530   36.9410   55.8180 C.2     0  <0>0        0.3643
     13  O2         8.5850   36.8960   56.2360 O.co2   0  <0>0       -0.2457
     14  O3         6.9720   38.0820   55.3000 O.co2   0  <0>0       -0.2457
     15  C10        9.5440   35.3880   59.9920 C.3     0  <0>0        0.2214
     16  S1         9.8490   36.8070   60.9420 S.3     0  <0>0       -0.0708
     17  C12       11.1060   36.1340   62.0160 C.2     0  <0>0        0.0484
     18  C11       11.2040   34.8620   61.5690 C.2     0  <0>0        0.0527
     19  N2        10.3990   34.4780   60.5350 N.pl3   0  <0>0       -0.3083
     20  H3        10.4390   33.5720   60.1910 H       0  <0>0        0.1491
     21  C13       12.1530   33.9110   62.1870 C.ar    0  <0>0        0.0137
     22  C18       11.6930   32.7000   62.7060 C.ar    0  <0>0        0.0012
     23  C17       12.5830   31.8170   63.2810 C.ar    0  <0>0        0.0000
     24  C16       13.9310   32.1300   63.3440 C.ar    0  <0>0        0.0000
     25  C15       14.3930   33.3270   62.8300 C.ar    0  <0>0        0.0000
     26  C14       13.5130   34.2180   62.2470 C.ar    0  <0>0        0.0012
@<TRIPOS>BOND
     1    10     9    1
     2    10    11    1
     3    14    12   ar
     4     9     8    1
     5    12     7    1
     6    12    13   ar
     7     7     8    1
     8     7     5    1
     9     6     5    1
    10     5     4    1
    11     4     1    1
    12     3     1   am
    13     3    15    1
    14     1     2    2
    15    15    19    1
    16    15    16    1
    17    20    19    1
    18    19    18    1
    19    16    17    1
    20    18    17    2
    21    18    21    1
    22    21    26   ar
    23    21    22   ar
    24    26    25   ar
    25    22    23   ar
    26    25    24   ar
    27    23    24   ar
