@<TRIPOS>MOLECULE
ZINC05100908_replica-1.pdb
 24 27 0 0 0
SMALL
GASTEIGER

@<TRIPOS>ATOM
      1  C1        -2.2530   28.2910   57.1190 C.3     0  <0>0        0.1230
      2  N1        -1.5170   29.5560   57.0450 N.am    0  <0>0       -0.2266
      3  C2        -0.7080   29.8940   58.0770 C.2     0  <0>0        0.2422
      4  O1        -0.5760   29.1800   59.0570 O.2     0  <0>0       -0.2737
      5  C3        -0.0160   31.1420   57.9470 C.3     0  <0>0        0.1540
      6  C4         0.9060   31.7280   58.9050 C.2     0  <0>0       -0.0267
      7  C5         1.4480   32.9220   58.5750 C.2     0  <0>0        0.0023
      8  S1         0.7650   33.3190   56.9850 S.3     0  <0>0       -0.0639
      9  C6        -0.2440   31.8870   56.7680 C.2     0  <0>0        0.1524
     10  N2        -1.0530   31.4990   55.7900 N.2     0  <0>0       -0.3776
     11  C7        -1.6780   30.3390   55.9430 C.2     0  <0>0        0.2169
     12  C15        2.4120   33.7360   59.3830 C.3     0  <0>0        0.0324
     13  C16        2.4320   33.1900   60.8150 C.3     0  <0>0        0.0055
     14  C17        2.5600   31.6640   60.7610 C.3     0  <0>0        0.0047
     15  C18        1.2630   31.0530   60.2280 C.3     0  <0>0        0.0231
     16  S2        -2.7610   29.7880   54.6670 S.3     0  <0>0       -0.0619
     17  C8        -1.6300   29.8320   53.2540 C.3     0  <0>0        0.0921
     18  C9        -1.2640   28.4250   52.8590 C.ar    0  <0>0       -0.0107
     19  C14       -1.6770   27.9200   51.6400 C.ar    0  <0>0       -0.0011
     20  C13       -1.3420   26.6290   51.2760 C.ar    0  <0>0        0.0293
     21  C12       -0.5930   25.8420   52.1340 C.ar    0  <0>0        0.1401
     22  C11       -0.1810   26.3480   53.3550 C.ar    0  <0>0        0.0293
     23  F1        -0.2660   24.5800   51.7790 F       0  <0>0       -0.2042
     24  C10       -0.5120   27.6400   53.7140 C.ar    0  <0>0       -0.0011
@<TRIPOS>BOND
     1    20    19   ar
     2    20    21   ar
     3    19    18   ar
     4    23    21    1
     5    21    22   ar
     6    18    17    1
     7    18    24   ar
     8    17    16    1
     9    22    24   ar
    10    16    11    1
    11    10    11    2
    12    10     9    2
    13    11     2    1
    14     9     8    1
    15     9     5    1
    16     8     7    1
    17     2     1    1
    18     2     3   am
    19     5     3    1
    20     5     6    1
    21     3     4    2
    22     7     6    2
    23     7    12    1
    24     6    15    1
    25    12    13    1
    26    15    14    1
    27    14    13    1
