@<TRIPOS>MOLECULE
ZINC37365440_replica-1.pdb
 21 21 0 0 0
SMALL
GASTEIGER

@<TRIPOS>ATOM
      1  C7         9.3320   36.0910   60.1030 C.ar    0  <0>0        0.0673
      2  C8         9.9640   36.9220   61.0180 C.ar    0  <0>0        0.0159
      3  C9        10.9340   36.4110   61.8570 C.ar    0  <0>0        0.0052
      4  C10       11.2760   35.0720   61.7880 C.ar    0  <0>0        0.0732
      5  C11       10.6480   34.2420   60.8790 C.ar    0  <0>0        0.0292
      6  C12        9.6730   34.7450   60.0400 C.ar    0  <0>0        0.1558
      7  N1         8.3500   36.6040   59.2520 N.pl3   0  <0>0       -0.3327
      8  H14        8.0950   36.1140   58.4560 H       0  <0>0        0.1468
      9  C5         7.7070   37.8830   59.5630 C.3     0  <0>0        0.0691
     10  C6         6.2570   37.6340   59.9850 C.3     0  <0>0        0.0212
     11  C4         7.7320   38.7810   58.3250 C.3     0  <0>0        0.0195
     12  C3         8.4260   38.0460   57.1760 C.3     0  <0>0        0.0017
     13  C2         7.4690   37.9410   55.9870 C.3     0  <0>0        0.0001
     14  C1         7.7010   36.6140   55.2610 C.3     0  <0>0        0.0000
     15  N2         8.9980   33.8540   59.0700 N.pl3   0  <0>0        0.0589
     16  O1         8.9140   34.1780   57.9080 O.2     0  <0>0       -0.1261
     17  O2         8.5300   32.8020   59.4400 O.2     0  <0>0       -0.1261
     18  C13       12.3340   34.5180   62.7060 C.3     0  <0>0        0.4186
     19  F1        13.5760   34.5500   62.0610 F       0  <0>0       -0.1659
     20  F2        12.3950   35.2920   63.8700 F       0  <0>0       -0.1659
     21  F3        12.0170   33.1980   63.0410 F       0  <0>0       -0.1659
@<TRIPOS>BOND
     1    14    13    1
     2    13    12    1
     3    12    11    1
     4    16    15    2
     5    11     9    1
     6     8     7    1
     7    15    17    2
     8    15     6    1
     9     7     9    1
    10     7     1    1
    11     9    10    1
    12     6     1   ar
    13     6     5   ar
    14     1     2   ar
    15     5     4   ar
    16     2     3   ar
    17     4     3   ar
    18     4    18    1
    19    19    18    1
    20    18    21    1
    21    18    20    1
