@<TRIPOS>MOLECULE
ZINC13043868_replica-1.pdb
 26 27 0 0 0
SMALL
GASTEIGER

@<TRIPOS>ATOM
      1  N1         7.2340   36.1480   58.4230 N.am    0  <0>0       -0.2987
      2  C9         6.6720   35.4960   57.3860 C.2     0  <0>0        0.2672
      3  O1         7.2930   35.3470   56.3550 O.2     0  <0>0       -0.2711
      4  H12        6.7380   36.2660   59.2480 H       0  <0>0        0.1498
      5  C10        5.2720   34.9510   57.5080 C.3     0  <0>0        0.2894
      6  O2         4.6320   35.5350   58.6440 O.3     0  <0>0       -0.4639
      7  C11        3.7180   34.7720   59.2970 C.ar    0  <0>0        0.1601
      8  C16        4.1380   33.8570   60.2560 C.ar    0  <0>0        0.0926
      9  C15        3.2140   33.0790   60.9210 C.ar    0  <0>0        0.0211
     10 Cl          5.8280   33.6920   60.6170 Cl      0  <0>0       -0.0791
     11  C14        1.8530   33.2170   60.6330 C.ar    0  <0>0        0.0816
     12  C13        1.4360   34.1340   59.6650 C.ar    0  <0>0        0.0211
     13  C12        2.3660   34.9080   59.0050 C.ar    0  <0>0        0.0926
     14 Cl          1.8480   36.0520   57.8060 Cl      0  <0>0       -0.0791
     15  C17        0.8600   32.3910   61.3460 C.2     0  <0>0        0.3878
     16  O3         0.3090   31.4720   60.7720 O.co2   0  <0>0       -0.2406
     17  O4         0.5650   32.6560   62.6340 O.co2   0  <0>0       -0.2406
     18  C4         8.5950   36.6770   58.3050 C.3     0  <0>0        0.1000
     19  C2         8.5580   38.2030   58.3990 C.3     0  <0>0        0.0227
     20  C1         8.5660   38.8020   56.9910 C.3     0  <0>0        0.0021
     21  C3         7.2880   38.6400   59.1320 C.3     0  <0>0        0.0021
     22  C5         9.4480   36.1250   59.4170 C.ar    0  <0>0        0.0250
     23  S1         9.8440   36.8550   60.9980 S.2     0  <0>0       -0.0892
     24  C8        10.8680   35.5390   61.6350 C.ar    0  <0>0        0.0352
     25  C7        10.8410   34.6450   60.6150 C.ar    0  <0>0        0.0072
     26  C6        10.1090   34.9430   59.4820 C.ar    0  <0>0        0.0043
@<TRIPOS>BOND
     1     3     2    2
     2    20    19    1
     3     2     5    1
     4     2     1   am
     5     5     6    1
     6    14    13    1
     7    18    19    1
     8    18     1    1
     9    18    22    1
    10    19    21    1
    11     1     4    1
    12     6     7    1
    13    13     7   ar
    14    13    12   ar
    15     7     8   ar
    16    22    26   ar
    17    22    23   ar
    18    26    25   ar
    19    12    11   ar
    20     8    10    1
    21     8     9   ar
    22    25    24   ar
    23    11     9   ar
    24    11    15    1
    25    16    15   ar
    26    23    24   ar
    27    15    17   ar
