@<TRIPOS>MOLECULE
ZINC12852012_replica-1.pdb
 27 29 0 0 0
SMALL
GASTEIGER

@<TRIPOS>ATOM
      1  N1         7.8620   34.7930   57.6550 N.am    0  <0>0       -0.2988
      2  C12        7.5740   34.6440   56.3480 C.2     0  <0>0        0.2716
      3  O1         7.6960   35.5820   55.5890 O.2     0  <0>0       -0.2706
      4  H16        7.8320   34.0260   58.2490 H       0  <0>0        0.1498
      5  C13        7.0990   33.3120   55.8270 C.3     0  <0>0        0.3020
      6  N2         5.6680   33.1620   56.1030 N.am    0  <0>0       -0.1052
      7  C15        4.6290   33.6800   55.3820 C.1     0  <0>0        0.1801
      8  N4         3.5170   33.3030   55.9720 N.2     0  <0>0        0.0474
      9  S1         4.7560   34.6680   53.9290 S.2     0  <0>0        0.0561
     10  N3         3.7870   32.5950   57.0100 N.2     0  <0>0        0.0931
     11  C14        5.0880   32.4720   57.1450 C.2     0  <0>0        0.3703
     12  C16        5.7940   31.7370   58.2080 C.ar    0  <0>0        0.1152
     13  S2         6.6390   30.1680   58.1200 S.2     0  <0>0       -0.0790
     14  C19        7.1720   30.0730   59.8210 C.ar    0  <0>0        0.0357
     15  C18        6.6740   31.2230   60.3420 C.ar    0  <0>0        0.0077
     16  C17        5.9680   32.0790   59.5250 C.ar    0  <0>0        0.0146
     17  C5         8.2190   36.1120   58.1820 C.3     0  <0>0        0.0942
     18  C4         6.9540   36.8300   58.6590 C.3     0  <0>0        0.0241
     19  C2         5.9570   35.8020   59.1980 C.3     0  <0>0        0.0020
     20  C1         5.7730   36.0110   60.7030 C.3     0  <0>0        0.0001
     21  C3         4.6120   35.9800   58.4910 C.3     0  <0>0        0.0001
     22  C6         9.1730   35.9510   59.3370 C.ar    0  <0>0       -0.0045
     23  C11        9.9140   34.7920   59.4650 C.ar    0  <0>0       -0.0027
     24  C10       10.7930   34.6460   60.5230 C.ar    0  <0>0       -0.0003
     25  C9        10.9220   35.6570   61.4580 C.ar    0  <0>0       -0.0000
     26  C8        10.1760   36.8140   61.3320 C.ar    0  <0>0       -0.0003
     27  C7         9.3020   36.9610   60.2720 C.ar    0  <0>0       -0.0027
@<TRIPOS>BOND
     1     9     7    2
     2     7     8    2
     3     7     6    1
     4     3     2    2
     5     5     6    1
     6     5     2    1
     7     8    10    1
     8     6    11    1
     9     2     1   am
    10    10    11    2
    11    11    12    1
    12     1    17    1
    13     1     4    1
    14    13    12   ar
    15    13    14   ar
    16    17    18    1
    17    17    22    1
    18    12    16   ar
    19    21    19    1
    20    18    19    1
    21    19    20    1
    22    22    23   ar
    23    22    27   ar
    24    23    24   ar
    25    16    15   ar
    26    14    15   ar
    27    27    26   ar
    28    24    25   ar
    29    26    25   ar
