@<TRIPOS>MOLECULE
ZINC58415127_replica-1.pdb
 26 29 0 0 0
SMALL
GASTEIGER

@<TRIPOS>ATOM
      1  S1        -0.8530   30.6070   55.8810 S.O2    0  <0>0        0.0619
      2  O1        -2.1590   31.1620   55.8060 O.2     0  <0>0       -0.1529
      3  O2         0.1820   30.9680   54.9770 O.2     0  <0>0       -0.1529
      4  C8        -0.2500   30.9570   57.5000 C.ar    0  <0>0        0.1394
      5  C7        -0.3320   30.0150   58.4780 C.ar    0  <0>0        0.0214
      6  C6         0.1390   30.2710   59.7640 C.ar    0  <0>0        0.0015
      7  C5         0.6970   31.4720   60.0780 C.ar    0  <0>0        0.0016
      8  C4         0.7980   32.4680   59.0940 C.ar    0  <0>0        0.0187
      9  C3         1.3680   33.7240   59.3770 C.ar    0  <0>0       -0.0012
     10  C9         0.3190   32.2110   57.7850 C.ar    0  <0>0        0.0998
     11  C2         1.4330   34.6440   58.3700 C.ar    0  <0>0       -0.0027
     12  C1         2.0330   36.0020   58.6260 C.3     0  <0>0        0.0327
     13  C10        0.9380   34.3290   57.1070 C.ar    0  <0>0        0.0946
     14  N1         0.4120   33.1560   56.8450 N.ar    0  <0>0       -0.2428
     15  N2        -1.0290   28.9650   55.7680 N.3     0  <0>0       -0.1766
     16  H10       -1.8430   28.5410   56.0840 H       0  <0>0        0.1491
     17  C11        0.0420   28.1520   55.1880 C.3     0  <0>0        0.0977
     18  C15       -0.3980   27.5710   53.8610 C.ar    0  <0>0       -0.0103
     19  C14       -0.0220   26.2400   53.7890 C.ar    0  <0>0       -0.0226
     20  C16       -1.0730   28.1580   52.8040 C.ar    0  <0>0       -0.0009
     21  C13        0.6970   25.8410   55.0600 C.3     0  <0>0        0.0279
     22  C19       -0.3240   25.5000   52.6580 C.ar    0  <0>0        0.0251
     23  C12        0.3370   26.9330   56.0880 C.3     0  <0>0        0.0265
     24  C18       -0.9970   26.0910   51.5990 C.ar    0  <0>0        0.1398
     25  C17       -1.3730   27.4210   51.6750 C.ar    0  <0>0        0.0293
     26  F1        -1.2900   25.3670   50.4960 F       0  <0>0       -0.2042
@<TRIPOS>BOND
     1    26    24    1
     2    24    25   ar
     3    24    22   ar
     4    25    20   ar
     5    22    19   ar
     6    20    18   ar
     7    19    18   ar
     8    19    21    1
     9    18    17    1
    10     3     1    2
    11    21    23    1
    12    17    15    1
    13    17    23    1
    14    15     1    1
    15    15    16    1
    16     2     1    2
    17     1     4    1
    18    14    13   ar
    19    14    10   ar
    20    13    11   ar
    21     4    10   ar
    22     4     5   ar
    23    10     8   ar
    24    11    12    1
    25    11     9   ar
    26     5     6   ar
    27     8     9   ar
    28     8     7   ar
    29     6     7   ar
