@<TRIPOS>MOLECULE
ZINC41631480_replica-1.pdb
 27 28 0 0 0
SMALL
GASTEIGER

@<TRIPOS>ATOM
      1  C3        -0.9320   30.1330   56.9000 C.3     0  <0>0        0.1398
      2  C2        -1.1800   29.4240   58.2340 C.3     0  <0>0        0.0211
      3  C1         0.0000   28.5030   58.5500 C.3     0  <0>0        0.0014
      4  C4        -1.2050   29.1800   55.7660 C.2     0  <0>0        0.2369
      5  O1        -2.2400   28.5480   55.7420 O.2     0  <0>0       -0.2738
      6  N1        -0.3000   29.0280   54.7800 N.am    0  <0>0       -0.2814
      7  H7         0.4950   29.5850   54.7610 H       0  <0>0        0.1549
      8  C5        -0.5040   28.0650   53.7820 C.ar    0  <0>0        0.0783
      9  C10       -1.2710   28.3740   52.6650 C.ar    0  <0>0        0.1557
     10  C9        -1.4660   27.4250   51.6780 C.ar    0  <0>0        0.0605
     11  F1        -1.8220   29.6020   52.5390 F       0  <0>0       -0.2028
     12  C8        -0.9080   26.1640   51.8100 C.ar    0  <0>0        0.1425
     13  C7        -0.1470   25.8550   52.9250 C.ar    0  <0>0        0.0311
     14  F2        -1.1040   25.2360   50.8480 F       0  <0>0       -0.2041
     15  C6         0.0540   26.8010   53.9100 C.ar    0  <0>0        0.0193
     16  S1         0.7940   30.6880   56.8240 S.3     0  <0>0       -0.0091
     17  C11        0.8080   32.1680   57.7800 C.1     0  <0>0        0.1789
     18  N3         1.0810   32.0990   59.0760 N.2     0  <0>0       -0.3412
     19  C14        1.1060   33.1910   59.8240 C.2     0  <0>0        0.1282
     20  C13        0.8320   34.4140   59.2440 C.3     0  <0>0        0.1914
     21  C12        0.5430   34.4560   57.8800 C.1     0  <0>0        0.1980
     22  N2         0.5410   33.3230   57.1880 N.2     0  <0>0       -0.2640
     23  O2         0.2690   35.6350   57.2710 O.2     0  <0>0       -0.2130
     24  C15        1.4240   33.0990   61.2940 C.3     0  <0>0        0.1139
     25  S2        -0.1180   32.9520   62.2390 S.3     0  <0>0       -0.1330
     26  C16       -0.4420   31.1680   62.2770 C.3     0  <0>0        0.0580
     27  C17       -0.4820   30.6880   63.7280 C.3     0  <0>0        0.0126
@<TRIPOS>BOND
     1    14    12    1
     2    10    12   ar
     3    10     9   ar
     4    12    13   ar
     5    11     9    1
     6     9     8   ar
     7    13    15   ar
     8     8    15   ar
     9     8     6    1
    10     7     6    1
    11     6     4   am
    12     5     4    2
    13     4     1    1
    14    16     1    1
    15    16    17    1
    16     1     2    1
    17    22    17    2
    18    22    21    2
    19    23    21    2
    20    17    18    2
    21    21    20    1
    22     2     3    1
    23    18    19    2
    24    20    19    1
    25    19    24    1
    26    24    25    1
    27    25    26    1
    28    26    27    1
