@<TRIPOS>MOLECULE
ZINC03134626_replica-1.pdb
 27 29 0 0 0
SMALL
GASTEIGER

@<TRIPOS>ATOM
      1  C6         8.4320   33.3790   59.9770 C.ar    0  <0>0        0.0586
      2  C7         8.3160   32.7100   58.7410 C.ar    0  <0>0        0.1236
      3  N2         7.0700   32.7830   58.3560 N.ar    0  <0>0       -0.1620
      4  N3         6.3460   33.4940   59.3200 N.ar    0  <0>0       -0.2098
      5  C8         7.1960   33.8520   60.3070 C.ar    0  <0>0        0.1052
      6  C4         9.6740   33.5390   60.7730 C.ar    0  <0>0        0.0949
      7  N1        10.0780   32.5570   61.5670 N.ar    0  <0>0       -0.2429
      8  C3        11.1780   32.6580   62.2860 C.ar    0  <0>0        0.1027
      9  C2        11.9500   33.8030   62.2460 C.ar    0  <0>0        0.0914
     10  C1        11.5610   34.8590   61.4340 C.ar    0  <0>0        0.0183
     11  C5        10.4040   34.7250   60.6850 C.ar    0  <0>0        0.0753
     12 Cl          9.8700   36.0130   59.6510 Cl      0  <0>0       -0.0807
     13  C15       13.2010   33.9060   63.0790 C.3     0  <0>0        0.4200
     14  F4        14.2820   34.2470   62.2580 F       0  <0>0       -0.1658
     15  F5        13.0300   34.8900   64.0580 F       0  <0>0       -0.1658
     16  F6        13.4550   32.6760   63.6950 F       0  <0>0       -0.1658
     17  C9         4.9790   33.7840   59.2720 C.ar    0  <0>0        0.1743
     18  N4         4.1160   32.9810   59.8720 N.ar    0  <0>0       -0.2243
     19  C13        2.8190   33.2210   59.8550 C.ar    0  <0>0        0.1045
     20  C12        2.3110   34.3210   59.1940 C.ar    0  <0>0        0.0915
     21  C11        3.1810   35.1860   58.5450 C.ar    0  <0>0        0.0199
     22  C10        4.5380   34.9110   58.5860 C.ar    0  <0>0        0.0934
     23 Cl          5.6730   35.9570   57.7920 Cl      0  <0>0       -0.0791
     24  C14        0.8260   34.5810   59.1770 C.3     0  <0>0        0.4200
     25  F1         0.5420   35.5990   58.2580 F       0  <0>0       -0.1658
     26  F2         0.1530   33.4140   58.8010 F       0  <0>0       -0.1658
     27  F3         0.4070   34.9730   60.4520 F       0  <0>0       -0.1658
@<TRIPOS>BOND
     1    23    22    1
     2    25    24    1
     3     3     2   ar
     4     3     4   ar
     5    21    22   ar
     6    21    20   ar
     7    22    17   ar
     8     2     1   ar
     9    26    24    1
    10    24    20    1
    11    24    27    1
    12    20    19   ar
    13    17     4    1
    14    17    18   ar
    15     4     5   ar
    16    12    11    1
    17    19    18   ar
    18     1     5   ar
    19     1     6    1
    20    11     6   ar
    21    11    10   ar
    22     6     7   ar
    23    10     9   ar
    24     7     8   ar
    25     9     8   ar
    26     9    13    1
    27    14    13    1
    28    13    16    1
    29    13    15    1
