@<TRIPOS>MOLECULE
ZINC35586741_replica-1.pdb
 21 22 0 0 0
SMALL
GASTEIGER

@<TRIPOS>ATOM
      1  C4         8.2030   35.3380   58.4500 C.3     0  <0>0       -0.0384
      2  N1         8.4230   36.4520   57.5180 N.4     0  <0>0        0.3876
      3  H10        9.2330   36.9790   57.8090 H       0  <0>0       -0.0839
      4  H28        7.6130   37.0540   57.5140 H       0  <0>0       -0.0839
      5  C3         8.6450   35.9220   56.1660 C.3     0  <0>0       -0.0812
      6  C2         7.6010   36.5050   55.2120 C.3     0  <0>0       -0.0233
      7  C1         7.2170   37.9120   55.6730 C.3     0  <0>0       -0.0023
      8  C5         9.1650   35.4510   59.6040 C.ar    0  <0>0       -0.0422
      9  C10        9.6840   34.3100   60.1890 C.ar    0  <0>0       -0.0074
     10  C9        10.5670   34.4160   61.2400 C.ar    0  <0>0        0.0150
     11  C8        10.9350   35.6600   61.7380 C.ar    0  <0>0        0.1344
     12  C11       11.3090   33.3750   62.0570 C.3     0  <0>0        0.0729
     13  C7        10.4050   36.8040   61.1450 C.ar    0  <0>0        0.0362
     14  O1        11.7940   35.5380   62.7850 O.3     0  <0>0       -0.4791
     15  C6         9.5280   36.6960   60.0860 C.ar    0  <0>0       -0.0032
     16  C12       12.3910   34.2300   62.7590 C.3     0  <0>0        0.1704
     17  C13       13.6880   34.2370   61.9470 C.3     0  <0>0        0.0476
     18  C14        6.7670   35.3910   58.9760 C.3     0  <0>0       -0.0139
     19  C15        6.7060   34.7340   60.3570 C.3     0  <0>0       -0.0017
     20  C16        6.3170   36.8490   59.0850 C.3     0  <0>0       -0.0017
     21  C17        5.8430   34.6430   58.0140 C.3     0  <0>0       -0.0017
@<TRIPOS>BOND
     1     6     7    1
     2     6     5    1
     3     5     2    1
     4     4     2    1
     5     2     3    1
     6     2     1    1
     7    21    18    1
     8     1    18    1
     9     1     8    1
    10    18    20    1
    11    18    19    1
    12     8    15   ar
    13     8     9   ar
    14    15    13   ar
    15     9    10   ar
    16    13    11   ar
    17    10    11   ar
    18    10    12    1
    19    11    14    1
    20    17    16    1
    21    12    16    1
    22    16    14    1
