@<TRIPOS>MOLECULE
ZINC07115601_replica-1.pdb
 33 36 0 0 0
SMALL
GASTEIGER

@<TRIPOS>ATOM
      1  C5        -1.7270   30.6090   55.1740 C.3     0  <0>0        0.0656
      2  C4        -0.3060   31.1730   55.1530 C.3     0  <0>0        0.0981
      3  N2        -0.2680   32.4310   55.9030 N.am    0  <0>0       -0.3023
      4  C3         0.8240   32.7540   56.6230 C.2     0  <0>0        0.2427
      5  O1         1.7760   32.0030   56.6520 O.2     0  <0>0       -0.2732
      6  H8        -1.0290   33.0320   55.8800 H       0  <0>0        0.1495
      7  C2         0.8630   34.0490   57.3930 C.3     0  <0>0        0.1771
      8  N1         1.6640   33.8710   58.6070 N.pl3   0  <0>0       -0.2981
      9  C1         3.1040   34.1400   58.5790 C.3     0  <0>0        0.1126
     10  C21        1.0550   33.4460   59.7890 C.ar    0  <0>0        0.0482
     11  C26        1.1300   32.1120   60.1700 C.ar    0  <0>0        0.0145
     12  C25        0.5310   31.6960   61.3430 C.ar    0  <0>0        0.0013
     13  C24       -0.1520   32.6030   62.1320 C.ar    0  <0>0        0.0001
     14  C23       -0.2330   33.9310   61.7530 C.ar    0  <0>0        0.0013
     15  C22        0.3690   34.3540   60.5850 C.ar    0  <0>0        0.0145
     16  C6        -1.8320   29.5490   56.2400 C.ar    0  <0>0       -0.0165
     17  C11       -2.9980   28.8190   56.3750 C.ar    0  <0>0       -0.0008
     18  C10       -3.0940   27.8430   57.3490 C.ar    0  <0>0        0.0366
     19  C9        -2.0250   27.6040   58.1970 C.ar    0  <0>0        0.1387
     20  C8        -0.8570   28.3420   58.0630 C.ar    0  <0>0        0.0366
     21  C7        -0.7640   29.3120   57.0850 C.ar    0  <0>0       -0.0008
     22  O2        -2.1180   26.6470   59.1580 O.3     0  <0>0       -0.4714
     23  C12       -2.8980   26.9620   60.3130 C.3     0  <0>0        0.2525
     24  C13       -2.0480   30.0040   53.8320 C.ar    0  <0>0        0.0016
     25  C16       -1.4690   28.7840   53.2650 C.ar    0  <0>0        0.0134
     26  C15       -2.0710   28.6180   52.0040 C.ar    0  <0>0        0.0563
     27  C17       -0.5250   27.8590   53.7130 C.ar    0  <0>0        0.0012
     28  N3        -2.9420   29.6690   51.8280 N.ar    0  <0>0       -0.3522
     29  C20       -1.7190   27.5240   51.2190 C.ar    0  <0>0        0.0170
     30  C14       -2.9140   30.4850   52.9260 C.ar    0  <0>0        0.0684
     31  H2        -3.4930   29.8110   51.0420 H       0  <0>0        0.1660
     32  C19       -0.7780   26.6270   51.6790 C.ar    0  <0>0        0.0015
     33  C18       -0.1900   26.7940   52.9240 C.ar    0  <0>0        0.0001
@<TRIPOS>BOND
     1    31    28    1
     2    29    32   ar
     3    29    26   ar
     4    32    33   ar
     5    28    26   ar
     6    28    30   ar
     7    26    25   ar
     8    33    27   ar
     9    30    24   ar
    10    25    27   ar
    11    25    24   ar
    12    24     1    1
    13     2     1    1
    14     2     3    1
    15     1    16    1
    16     6     3    1
    17     3     4   am
    18    16    17   ar
    19    16    21   ar
    20    17    18   ar
    21     4     5    2
    22     4     7    1
    23    21    20   ar
    24    18    19   ar
    25     7     8    1
    26    20    19   ar
    27    19    22    1
    28     9     8    1
    29     8    10    1
    30    22    23    1
    31    10    11   ar
    32    10    15   ar
    33    11    12   ar
    34    15    14   ar
    35    12    13   ar
    36    14    13   ar
