@<TRIPOS>MOLECULE
ZINC02963650_replica-1.pdb
 28 31 0 0 0
SMALL
GASTEIGER

@<TRIPOS>ATOM
      1  C1         5.4330   34.6400   59.7430 C.3     0  <0>0        0.0659
      2  C2         6.7910   35.3440   59.8050 C.3     0  <0>0        0.2013
      3  C3         6.6710   36.6020   60.7070 C.3     0  <0>0        0.0846
      4  C4         8.0330   37.3120   60.6250 C.3     0  <0>0        0.1014
      5  C5         9.1240   36.3250   60.9750 C.ar    0  <0>0        0.0327
      6  C6        10.3330   36.8040   61.4500 C.ar    0  <0>0        0.0005
      7  C7        11.3510   35.9270   61.7710 C.ar    0  <0>0        0.0030
      8  C8        11.1650   34.5660   61.6160 C.ar    0  <0>0        0.0400
      9  C9         9.9580   34.0820   61.1450 C.ar    0  <0>0        0.1722
     10  C10        8.9260   34.9670   60.8230 C.ar    0  <0>0        0.1714
     11  O1         7.7520   34.4550   60.3690 O.3     0  <0>0       -0.4625
     12  N1         8.2390   37.7160   59.2240 N.am    0  <0>0       -0.3133
     13  C12        7.8380   36.9050   58.2310 C.2     0  <0>0        0.1410
     14  S1         8.1700   37.3550   56.6120 S.2     0  <0>0       -0.0182
     15  N2         7.1860   35.7540   58.4610 N.am    0  <0>0       -0.2415
     16  H13        8.6640   38.5630   59.0190 H       0  <0>0        0.1487
     17  C13        6.8750   34.9230   57.3790 C.ar    0  <0>0        0.0558
     18  C18        5.7630   35.1900   56.5930 C.ar    0  <0>0        0.0188
     19  C17        5.4600   34.3680   55.5260 C.ar    0  <0>0        0.0727
     20  C16        6.2620   33.2790   55.2410 C.ar    0  <0>0        0.0039
     21  C15        7.3710   33.0090   56.0220 C.ar    0  <0>0        0.0012
     22  C14        7.6830   33.8320   57.0870 C.ar    0  <0>0        0.0150
     23  C19        4.2530   34.6570   54.6710 C.3     0  <0>0        0.4186
     24  F1         4.5980   34.5380   53.3210 F       0  <0>0       -0.1659
     25  F2         3.2360   33.7450   54.9750 F       0  <0>0       -0.1659
     26  F3         3.8030   35.9570   54.9250 F       0  <0>0       -0.1659
     27  O2         9.7750   32.7420   60.9930 O.3     0  <0>0       -0.4684
     28  C11       10.0510   31.9180   62.1280 C.3     0  <0>0        0.2526
@<TRIPOS>BOND
     1    24    23    1
     2    23    26    1
     3    23    25    1
     4    23    19    1
     5    20    19   ar
     6    20    21   ar
     7    19    18   ar
     8    21    22   ar
     9    18    17   ar
    10    14    13    2
    11    22    17   ar
    12    17    15    1
    13    13    15    1
    14    13    12    1
    15    15     2    1
    16    16    12    1
    17    12     4    1
    18     1     2    1
    19     2    11    1
    20     2     3    1
    21    11    10    1
    22     4     3    1
    23     4     5    1
    24    10     5   ar
    25    10     9   ar
    26     5     6   ar
    27    27     9    1
    28    27    28    1
    29     9     8   ar
    30     6     7   ar
    31     8     7   ar
