@<TRIPOS>MOLECULE
ZINC15232810_replica-1.pdb
 29 31 0 0 0
SMALL
GASTEIGER

@<TRIPOS>ATOM
      1  C9        -1.0360   30.2710   54.6740 C.ar    0  <0>0        0.1865
      2  N2        -1.9370   30.5530   55.5960 N.ar    0  <0>0       -0.1249
      3  N3        -1.6240   31.4240   56.6140 N.ar    0  <0>0       -0.1332
      4  C10       -0.4280   31.9810   56.6570 C.ar    0  <0>0        0.1607
      5  S1         0.3430   31.2690   55.2120 S.2     0  <0>0       -0.0242
      6  S2         0.2310   33.1210   57.8280 S.3     0  <0>0       -0.0840
      7  C11        1.8520   33.5640   57.1460 C.3     0  <0>0        0.0972
      8  C12        1.8000   34.9900   56.5910 C.3     0  <0>0        0.1652
      9  C13        2.2910   35.9700   57.6580 C.3     0  <0>0        0.2352
     10  O1         3.3250   35.3550   58.4290 O.3     0  <0>0       -0.4728
     11  C14        4.5560   35.9280   58.3810 C.ar    0  <0>0        0.1388
     12  C19        5.0910   36.5230   59.5140 C.ar    0  <0>0        0.0392
     13  C18        6.3420   37.1050   59.4630 C.ar    0  <0>0        0.0327
     14  C17        7.0630   37.0940   58.2810 C.ar    0  <0>0        0.1403
     15  C16        6.5320   36.5010   57.1490 C.ar    0  <0>0        0.0327
     16  F1         8.2880   37.6640   58.2330 F       0  <0>0       -0.2042
     17  C15        5.2830   35.9130   57.1990 C.ar    0  <0>0        0.0392
     18  O2         0.4550   35.3120   56.2310 O.3     0  <0>0       -0.3798
     19  H20        0.2950   36.2580   56.1110 H       0  <0>0        0.2105
     20  N1        -1.1370   29.4270   53.5740 N.pl3   0  <0>0       -0.2916
     21  H11       -1.5390   29.7480   52.7520 H       0  <0>0        0.1541
     22  C6        -0.6580   28.1170   53.6520 C.ar    0  <0>0        0.0454
     23  C5         0.0050   27.6860   54.7940 C.ar    0  <0>0        0.0143
     24  C4         0.4780   26.3890   54.8680 C.ar    0  <0>0        0.0009
     25  C3         0.2920   25.5230   53.8070 C.ar    0  <0>0       -0.0045
     26  C2        -0.3680   25.9490   52.6690 C.ar    0  <0>0       -0.0246
     27  C1        -0.5670   25.0010   51.5150 C.3     0  <0>0        0.0307
     28  C7        -0.8420   27.2430   52.5870 C.ar    0  <0>0       -0.0123
     29  C8        -1.5610   27.7060   51.3470 C.3     0  <0>0        0.0320
@<TRIPOS>BOND
     1    29    28    1
     2    27    26    1
     3    28    26   ar
     4    28    22   ar
     5    26    25   ar
     6    21    20    1
     7    20    22    1
     8    20     1    1
     9    22    23   ar
    10    25    24   ar
    11     1     5   ar
    12     1     2   ar
    13    23    24   ar
    14     5     4   ar
    15     2     3   ar
    16    19    18    1
    17    18     8    1
    18     8     7    1
    19     8     9    1
    20     3     4   ar
    21     4     6    1
    22     7     6    1
    23    15    17   ar
    24    15    14   ar
    25    17    11   ar
    26     9    10    1
    27    16    14    1
    28    14    13   ar
    29    11    10    1
    30    11    12   ar
    31    13    12   ar
