@<TRIPOS>MOLECULE
ZINC63492758_replica-1.pdb
 31 34 0 0 0
SMALL
GASTEIGER

@<TRIPOS>ATOM
      1  N1         0.8380   30.7070   55.6500 N.am    0  <0>0       -0.3043
      2  C10        0.6410   31.3500   56.8180 C.2     0  <0>0        0.2228
      3  O1        -0.2050   32.2170   56.8970 O.2     0  <0>0       -0.2751
      4  H11        1.5150   30.0140   55.5870 H       0  <0>0        0.1494
      5  C9         0.0310   31.0520   54.4770 C.3     0  <0>0        0.0901
      6  C8        -0.9340   29.9050   54.1680 C.3     0  <0>0        0.0300
      7  C7        -0.2440   28.5680   54.4510 C.3     0  <0>0        0.0462
      8  C4        -0.5570   27.5980   53.3420 C.ar    0  <0>0       -0.0184
      9  C3        -0.0940   26.2960   53.4110 C.ar    0  <0>0       -0.0040
     10  C2        -0.3820   25.4060   52.3940 C.ar    0  <0>0       -0.0003
     11  C1        -1.1330   25.8150   51.3080 C.ar    0  <0>0       -0.0000
     12  C6        -1.5960   27.1150   51.2400 C.ar    0  <0>0       -0.0003
     13  C5        -1.3080   28.0070   52.2550 C.ar    0  <0>0       -0.0040
     14  C21       -0.7420   28.0130   55.7610 C.ar    0  <0>0       -0.0184
     15  C26        0.0330   27.1150   56.4690 C.ar    0  <0>0       -0.0040
     16  C25       -0.4220   26.6090   57.6730 C.ar    0  <0>0       -0.0003
     17  C24       -1.6550   26.9950   58.1620 C.ar    0  <0>0       -0.0000
     18  C23       -2.4330   27.8890   57.4500 C.ar    0  <0>0       -0.0003
     19  C22       -1.9760   28.3980   56.2490 C.ar    0  <0>0       -0.0040
     20  C11        1.4710   30.9960   58.0240 C.3     0  <0>0        0.0898
     21  C12        0.6910   30.0250   58.9130 C.3     0  <0>0        0.0375
     22  C13        0.4590   30.6550   60.2620 C.ar    0  <0>0       -0.0033
     23  C20        1.1300   31.8920   60.8150 C.ar    0  <0>0        0.0681
     24  N2         0.5630   32.0940   62.1540 N.ar    0  <0>0       -0.3523
     25  C19       -0.3010   31.1360   62.3900 C.ar    0  <0>0        0.0563
     26  H27        0.7940   32.8110   62.7640 H       0  <0>0        0.1660
     27  C14       -0.3860   30.2240   61.2260 C.ar    0  <0>0        0.0131
     28  C18       -1.1190   30.8570   63.5180 C.ar    0  <0>0        0.0170
     29  C15       -1.3090   29.0840   61.3040 C.ar    0  <0>0        0.0012
     30  C16       -2.0410   28.9100   62.4270 C.ar    0  <0>0        0.0001
     31  C17       -1.9440   29.7880   63.5150 C.ar    0  <0>0        0.0015
@<TRIPOS>BOND
     1    12    11   ar
     2    12    13   ar
     3    11    10   ar
     4    13     8   ar
     5    10     9   ar
     6     8     9   ar
     7     8     7    1
     8     6     7    1
     9     6     5    1
    10     7    14    1
    11     5     1    1
    12     4     1    1
    13     1     2   am
    14    14    19   ar
    15    14    15   ar
    16    19    18   ar
    17    15    16   ar
    18     2     3    2
    19     2    20    1
    20    18    17   ar
    21    16    17   ar
    22    20    21    1
    23    21    22    1
    24    22    23   ar
    25    22    27   ar
    26    23    24   ar
    27    27    29   ar
    28    27    25   ar
    29    29    30   ar
    30    24    25   ar
    31    24    26    1
    32    25    28   ar
    33    30    31   ar
    34    31    28   ar
