@<TRIPOS>MOLECULE
ZINC37279056_replica-1.pdb
 22 23 0 0 0
SMALL
GASTEIGER

@<TRIPOS>ATOM
      1  C1         0.9050   30.4730   56.5580 C.3     0  <0>0        0.0212
      2  C2        -0.1600   31.3150   55.8520 C.3     0  <0>0        0.0694
      3  C3        -0.3120   30.8380   54.4060 C.3     0  <0>0        0.0235
      4  C4        -1.5140   29.8980   54.3010 C.3     0  <0>0        0.0205
      5  C5        -2.1010   29.6640   55.6940 C.3     0  <0>0        0.0044
      6  C6        -2.5770   30.5290   53.4000 C.3     0  <0>0        0.0044
      7  C7        -1.0740   28.5830   53.7140 C.ar    0  <0>0       -0.0227
      8  C12       -0.3160   27.7080   54.4700 C.ar    0  <0>0       -0.0043
      9  C11        0.0840   26.4990   53.9320 C.ar    0  <0>0       -0.0003
     10  C10       -0.2660   26.1680   52.6360 C.ar    0  <0>0       -0.0000
     11  C9        -1.0200   27.0450   51.8790 C.ar    0  <0>0       -0.0003
     12  C8        -1.4240   28.2530   52.4180 C.ar    0  <0>0       -0.0043
     13  N1         0.2430   32.7230   55.8630 N.pl3   0  <0>0       -0.3336
     14  H18        0.1870   33.2500   55.0500 H       0  <0>0        0.1468
     15  C13        0.7110   33.3090   57.0450 C.ar    0  <0>0        0.0503
     16  C18        2.0320   33.7470   57.1330 C.ar    0  <0>0        0.0383
     17  C17        2.4880   34.3330   58.3050 C.ar    0  <0>0        0.0074
     18  C16        1.6350   34.4700   59.3860 C.ar    0  <0>0        0.0006
     19  C15        0.3270   34.0300   59.2990 C.ar    0  <0>0        0.0013
     20  C14       -0.1360   33.4520   58.1330 C.ar    0  <0>0        0.0148
     21  S1         3.1180   33.5640   55.7580 S.3     0  <0>0       -0.1115
     22  C19        3.5480   35.2670   55.3060 C.3     0  <0>0        0.0742
@<TRIPOS>BOND
     1    11    12   ar
     2    11    10   ar
     3    12     7   ar
     4    10     9   ar
     5     6     4    1
     6     7     4    1
     7     7     8   ar
     8     9     8   ar
     9     4     3    1
    10     4     5    1
    11     3     2    1
    12    14    13    1
    13    22    21    1
    14    21    16    1
    15     2    13    1
    16     2     1    1
    17    13    15    1
    18    15    16   ar
    19    15    20   ar
    20    16    17   ar
    21    20    19   ar
    22    17    18   ar
    23    19    18   ar
