@<TRIPOS>MOLECULE
ZINC12848555_replica-1.pdb
 30 33 0 0 0
SMALL
GASTEIGER

@<TRIPOS>ATOM
      1  C13        9.0150   33.1320   60.5220 C.1     0  <0>0        0.1680
      2  N2        10.1210   32.8000   61.1710 N.2     0  <0>0       -0.3384
      3  C14       10.9830   33.7380   61.5650 C.2     0  <0>0        0.1348
      4  C15       10.7000   35.0810   61.2830 C.3     0  <0>0        0.1244
      5  C16        9.5340   35.3790   60.6040 C.2     0  <0>0        0.2000
      6  N3         8.7260   34.3950   60.2390 N.2     0  <0>0       -0.3349
      7  S1         7.9010   31.8630   60.0180 S.3     0  <0>0       -0.0084
      8  C12        8.2190   31.6800   58.2420 C.3     0  <0>0        0.1593
      9  C11        6.9290   31.8470   57.4810 C.2     0  <0>0        0.2377
     10  N1         6.6510   33.0180   56.8740 N.am    0  <0>0       -0.2804
     11  C4         5.4340   33.3260   56.0960 C.3     0  <0>0        0.0754
     12  C10        7.5150   34.2080   56.8630 C.3     0  <0>0        0.0933
     13  C3         5.8570   34.4590   55.1280 C.3     0  <0>0        0.0215
     14  C5         4.3740   33.9020   57.0310 C.3     0  <0>0        0.0198
     15  C2         6.7450   35.3000   56.0870 C.3     0  <0>0        0.0199
     16  C1         7.6830   36.2510   55.3290 C.3     0  <0>0        0.0018
     17  C7         5.8100   36.0350   57.0450 C.3     0  <0>0        0.0018
     18  C6         4.8230   35.1450   57.7770 C.3     0  <0>0        0.0016
     19  C8         5.3840   34.7540   59.1520 C.3     0  <0>0        0.0001
     20  C9         3.5560   35.9950   58.0500 C.3     0  <0>0        0.0001
     21  O1         6.1420   30.9260   57.4120 O.2     0  <0>0       -0.2739
     22  C17        9.1870   36.8090   60.2800 C.3     0  <0>0        0.4435
     23  F1         9.0640   36.9560   58.8930 F       0  <0>0       -0.1638
     24  F2         7.9770   37.1460   60.8940 F       0  <0>0       -0.1638
     25  F3        10.2000   37.6530   60.7500 F       0  <0>0       -0.1638
     26  C18       12.2140   33.3670   62.2880 C.ar    0  <0>0        0.0562
     27  S2        12.5920   31.8590   63.1660 S.2     0  <0>0       -0.0842
     28  C21       14.2430   32.2840   63.6980 C.ar    0  <0>0        0.0355
     29  C20       14.3950   33.5330   63.1850 C.ar    0  <0>0        0.0076
     30  C19       13.3640   34.0920   62.4650 C.ar    0  <0>0        0.0093
@<TRIPOS>BOND
     1    13    15    1
     2    13    11    1
     3    16    15    1
     4    15    12    1
     5    15    17    1
     6    11    10    1
     7    11    14    1
     8    12    10    1
     9    10     9   am
    10    14    18    1
    11    17    18    1
    12    21     9    2
    13     9     8    1
    14    18    20    1
    15    18    19    1
    16     8     7    1
    17    23    22    1
    18     7     1    1
    19     6     1    2
    20     6     5    2
    21    22     5    1
    22    22    25    1
    23    22    24    1
    24     1     2    2
    25     5     4    1
    26     2     3    2
    27     4     3    1
    28     3    26    1
    29    26    30   ar
    30    26    27   ar
    31    30    29   ar
    32    27    28   ar
    33    29    28   ar
