@<TRIPOS>MOLECULE
ZINC10316276_replica-1.pdb
 23 24 0 0 0
SMALL
GASTEIGER

@<TRIPOS>ATOM
      1  C7        -0.5830   31.2160   56.4930 C.ar    0  <0>0        0.1611
      2  N1        -1.6350   30.4190   56.5220 N.ar    0  <0>0       -0.1331
      3  N2        -2.0290   29.7660   55.3770 N.ar    0  <0>0       -0.1249
      4  C8        -1.3480   29.9290   54.2600 C.ar    0  <0>0        0.1866
      5  S2        -0.0770   31.0690   54.7860 S.2     0  <0>0       -0.0242
      6  S1         0.1310   32.1710   57.7910 S.3     0  <0>0       -0.0747
      7  C6         0.7240   33.6690   56.9580 C.3     0  <0>0        0.1733
      8  C5         2.2170   33.5850   56.7760 C.2     0  <0>0        0.3283
      9  O2         2.6770   33.1180   55.7610 O.2     0  <0>0       -0.2491
     10  O1         3.0380   34.0300   57.7420 O.3     0  <0>0       -0.4551
     11  C2         3.2050   35.4670   57.8550 C.3     0  <0>0        0.1363
     12  C1         4.5640   35.7740   58.4910 C.3     0  <0>0        0.0437
     13  C3         3.1380   36.1000   56.4640 C.3     0  <0>0        0.0437
     14  C4         2.0910   36.0420   58.7310 C.3     0  <0>0        0.0437
     15  N3        -1.5650   29.3700   53.0070 N.pl3   0  <0>0       -0.2896
     16  H12       -1.9920   29.8930   52.3090 H       0  <0>0        0.1542
     17  C9        -1.1700   28.0530   52.7500 C.ar    0  <0>0        0.0776
     18  C14       -1.5640   27.4230   51.5740 C.ar    0  <0>0        0.1534
     19  C13       -1.1700   26.1210   51.3260 C.ar    0  <0>0        0.0309
     20  F1        -2.3280   28.0830   50.6770 F       0  <0>0       -0.2029
     21  C12       -0.3870   25.4470   52.2440 C.ar    0  <0>0        0.0024
     22  C11        0.0070   26.0720   53.4130 C.ar    0  <0>0        0.0014
     23  C10       -0.3830   27.3720   53.6690 C.ar    0  <0>0        0.0169
@<TRIPOS>BOND
     1    20    18    1
     2    19    18   ar
     3    19    21   ar
     4    18    17   ar
     5    21    22   ar
     6    16    15    1
     7    17    15    1
     8    17    23   ar
     9    15     4    1
    10    22    23   ar
    11     4     5   ar
    12     4     3   ar
    13     5     1   ar
    14     3     2   ar
    15     9     8    2
    16    13    11    1
    17     1     2   ar
    18     1     6    1
    19     8     7    1
    20     8    10    1
    21     7     6    1
    22    10    11    1
    23    11    12    1
    24    11    14    1
