@<TRIPOS>MOLECULE
ZINC43763111_replica-1.pdb
 23 25 0 0 0
SMALL
GASTEIGER

@<TRIPOS>ATOM
      1  N1         0.9580   30.4990   56.2710 N.pl3   0  <0>0       -0.1367
      2  H11        1.2900   29.7340   56.7670 H       0  <0>0        0.1966
      3  S1        -0.5120   30.4230   55.5150 S.O2    0  <0>0        0.0877
      4  O1        -0.5770   31.5410   54.6390 O.2     0  <0>0       -0.1487
      5  O2        -1.4790   30.1930   56.5300 O.2     0  <0>0       -0.1487
      6  C5        -0.5010   28.9850   54.4960 C.ar    0  <0>0        0.1266
      7  C4         0.2280   27.8740   54.8770 C.ar    0  <0>0        0.0199
      8  C3         0.2360   26.7460   54.0780 C.ar    0  <0>0       -0.0029
      9  C2        -0.4840   26.7290   52.8980 C.ar    0  <0>0       -0.0218
     10  C1        -0.4740   25.4990   52.0270 C.3     0  <0>0        0.0310
     11  C7        -1.2080   27.8420   52.5150 C.ar    0  <0>0       -0.0029
     12  C6        -1.2190   28.9690   53.3150 C.ar    0  <0>0        0.0199
     13  N2         1.7250   31.6700   56.1960 N.2     0  <0>0       -0.1740
     14  C8         2.2770   32.1420   57.2500 C.2     0  <0>0        0.0549
     15  C16        3.2030   33.3110   57.1260 C.3     0  <0>0        0.0377
     16  C9         1.9850   31.5050   58.5750 C.3     0  <0>0        0.0429
     17  C15        2.7780   34.4540   58.0500 C.3     0  <0>0        0.0056
     18  C17        3.1760   33.8150   55.6820 C.3     0  <0>0        0.0060
     19  C11        2.3680   33.9640   59.4270 C.3     0  <0>0        0.0007
     20  C10        1.8880   32.5460   59.6740 C.3     0  <0>0        0.0056
     21  C12        0.8900   33.6890   59.5780 C.3     0  <0>0        0.0004
     22  C13        0.0360   33.7770   58.3110 C.3     0  <0>0        0.0000
     23  C14        0.2070   34.1430   60.8690 C.3     0  <0>0        0.0000
@<TRIPOS>BOND
     1    10     9    1
     2    11     9   ar
     3    11    12   ar
     4     9     8   ar
     5    12     6   ar
     6     8     7   ar
     7     6     7   ar
     8     6     3    1
     9     4     3    2
    10     3     1    1
    11     3     5    2
    12    18    15    1
    13    13     1    1
    14    13    14    2
    15     1     2    1
    16    15    14    1
    17    15    17    1
    18    14    16    1
    19    17    19    1
    20    22    21    1
    21    16    20    1
    22    19    21    1
    23    19    20    1
    24    21    20    1
    25    21    23    1
