@<TRIPOS>MOLECULE
ZINC40805898_replica-1.pdb
 25 28 0 0 0
SMALL
GASTEIGER

@<TRIPOS>ATOM
      1  N2         8.2070   34.1260   59.9930 N.am    0  <0>0       -0.2497
      2  C9         7.4310   35.2100   60.1940 C.2     0  <0>0        0.2676
      3  O1         7.7500   36.0420   61.0230 O.2     0  <0>0       -0.2681
      4  H7         7.9170   33.4280   59.3860 H       0  <0>0        0.1581
      5  C10        6.2050   35.3870   59.4130 C.ar    0  <0>0        0.1148
      6  N3         6.1410   35.7270   58.0780 N.ar    0  <0>0       -0.3251
      7  C13        4.8060   35.8000   57.6870 C.ar    0  <0>0        0.0665
      8  C12        4.0580   35.4990   58.8320 C.ar    0  <0>0        0.0468
      9  C17        4.0660   36.0790   56.5310 C.ar    0  <0>0        0.0247
     10  C11        4.9190   35.2470   59.8880 C.ar    0  <0>0        0.0297
     11  S2         2.3810   35.6160   58.2640 S.2     0  <0>0       -0.0849
     12  C18        2.7160   36.0490   56.5660 C.ar    0  <0>0        0.0370
     13  C14        7.2940   35.9720   57.2090 C.3     0  <0>0        0.0857
     14  C15        7.2890   34.9620   56.0590 C.3     0  <0>0        0.0245
     15  C16        7.2150   37.3910   56.6420 C.3     0  <0>0        0.0245
     16  C8         9.4180   34.0120   60.6520 C.2     0  <0>0        0.2136
     17  S1        10.7770   35.1710   60.7090 S.3     0  <0>0       -0.0561
     18  C6        11.8480   34.2090   61.7490 C.3     0  <0>0        0.1292
     19  C5        11.0770   33.0470   61.9830 C.2     0  <0>0        0.1254
     20  C7        13.1010   34.3850   62.2830 C.2     0  <0>0       -0.0124
     21  C4        11.6700   32.0580   62.8010 C.2     0  <0>0        0.0285
     22  N1         9.8620   33.0240   61.3950 N.2     0  <0>0       -0.3839
     23  C3        12.9230   32.2410   63.3250 C.2     0  <0>0       -0.0022
     24  C2        13.6520   33.3950   63.0730 C.2     0  <0>0       -0.0248
     25  C1        15.0280   33.5680   63.6630 C.3     0  <0>0        0.0307
@<TRIPOS>BOND
     1    14    13    1
     2     9    12   ar
     3     9     7   ar
     4    12    11   ar
     5    15    13    1
     6    13     6    1
     7     7     6   ar
     8     7     8   ar
     9     6     5   ar
    10    11     8   ar
    11     8    10   ar
    12     4     1    1
    13     5    10   ar
    14     5     2    1
    15     1     2   am
    16     1    16    1
    17     2     3    2
    18    16    17    1
    19    16    22    2
    20    17    18    1
    21    22    19    2
    22    18    19    1
    23    18    20    1
    24    19    21    1
    25    20    24    2
    26    21    23    2
    27    24    23    1
    28    24    25    1
