@<TRIPOS>MOLECULE
ZINC23607056_replica-1.pdb
 23 25 0 0 0
SMALL
GASTEIGER

@<TRIPOS>ATOM
      1  N3         2.2520   31.5830   56.4410 N.am    0  <0>0       -0.2537
      2  C7         0.9210   31.7890   56.4020 C.2     0  <0>0        0.2396
      3  O1         0.4750   32.9080   56.5520 O.2     0  <0>0       -0.2737
      4  H8         2.6080   30.6890   56.3210 H       0  <0>0        0.1577
      5  C6         3.1150   32.6520   56.6520 C.2     0  <0>0        0.2126
      6  S1         3.6150   33.3210   58.1160 S.3     0  <0>0       -0.0596
      7  C5         4.6620   34.5810   57.4480 C.3     0  <0>0        0.1194
      8  C4         4.5420   34.3860   56.1080 C.2     0  <0>0        0.1017
      9  C15        5.4880   35.6150   58.1320 C.3     0  <0>0        0.0903
     10  C3         5.3000   35.2870   55.1440 C.3     0  <0>0        0.0727
     11  N2         3.7390   33.3870   55.7580 N.2     0  <0>0       -0.3884
     12  C2         5.7320   36.5440   55.9070 C.3     0  <0>0        0.0793
     13  N1         6.4320   36.1750   57.1440 N.3     0  <0>0       -0.2700
     14  C1         7.1570   37.3250   57.7010 C.3     0  <0>0        0.0897
     15  C8        -0.0160   30.6300   56.1730 C.3     0  <0>0        0.1473
     16  S2        -0.9180   30.8790   54.6200 S.3     0  <0>0       -0.1039
     17  C9        -0.8350   29.3090   53.8240 C.ar    0  <0>0        0.0257
     18  C14       -0.0300   28.3040   54.3470 C.ar    0  <0>0        0.0067
     19  C13        0.0300   27.0740   53.7230 C.ar    0  <0>0        0.0072
     20  C12       -0.7040   26.8440   52.5730 C.ar    0  <0>0        0.0346
     21  C11       -1.5030   27.8430   52.0460 C.ar    0  <0>0        0.0072
     22 Br         -0.6150   25.1590   51.7180 Br      0  <0>0       -0.0490
     23  C10       -1.5700   29.0740   52.6690 C.ar    0  <0>0        0.0067
@<TRIPOS>BOND
     1    22    20    1
     2    21    20   ar
     3    21    23   ar
     4    20    19   ar
     5    23    17   ar
     6    19    18   ar
     7    17    18   ar
     8    17    16    1
     9    16    15    1
    10    10    12    1
    11    10     8    1
    12    11     8    2
    13    11     5    2
    14    12    13    1
    15     8     7    1
    16    15     2    1
    17     4     1    1
    18     2     1   am
    19     2     3    2
    20     1     5    1
    21     5     6    1
    22    13    14    1
    23    13     9    1
    24     7     6    1
    25     7     9    1
