@<TRIPOS>MOLECULE
ZINC18046799_replica-1.pdb
 30 33 0 0 0
SMALL
GASTEIGER

@<TRIPOS>ATOM
      1  C8         1.1140   32.3570   56.4350 C.3     0  <0>0        0.1101
      2  C7         2.0840   32.1090   57.5930 C.3     0  <0>0        0.1001
      3  C6         1.4650   32.5950   58.8780 C.ar    0  <0>0       -0.0060
      4  C1         1.1870   33.9400   59.0450 C.ar    0  <0>0       -0.0006
      5  C2         0.6150   34.3860   60.2200 C.ar    0  <0>0        0.0294
      6  C3         0.3300   33.4890   61.2360 C.ar    0  <0>0        0.1401
      7  C4         0.6160   32.1440   61.0710 C.ar    0  <0>0        0.0294
      8  F2        -0.2220   33.9260   62.3890 F       0  <0>0       -0.2042
      9  C5         1.1820   31.6980   59.8910 C.ar    0  <0>0       -0.0006
     10  N2         3.3370   32.8340   57.3460 N.3     0  <0>0       -0.2646
     11  C21        4.4980   31.9460   57.5040 C.3     0  <0>0        0.1049
     12  C20        5.7830   32.7530   57.2970 C.3     0  <0>0        0.1595
     13  O2         5.7470   33.3760   56.0110 O.3     0  <0>0       -0.3508
     14  C19        4.6290   34.2470   55.8230 C.3     0  <0>0        0.1595
     15  C18        3.3330   33.4550   56.0140 C.3     0  <0>0        0.1049
     16  N1         1.0200   31.1510   55.6090 N.am    0  <0>0       -0.2987
     17  C9        -0.1170   30.4280   55.5990 C.2     0  <0>0        0.2528
     18  O1        -1.0660   30.7770   56.2760 O.2     0  <0>0       -0.2696
     19  H8         1.8780   30.8350   54.9980 H       0  <0>0        0.1498
     20  C10       -0.2110   29.2190   54.7730 C.ar    0  <0>0        0.0933
     21  S1         0.5750   27.6360   55.0230 S.2     0  <0>0       -0.0815
     22  C17       -0.0720   26.8000   53.5980 C.ar    0  <0>0        0.0327
     23  C12       -0.8780   27.7820   52.9760 C.ar    0  <0>0        0.0174
     24  C16        0.0690   25.5290   53.0820 C.ar    0  <0>0        0.0361
     25  C11       -0.9190   29.0290   53.6260 C.ar    0  <0>0        0.0685
     26  C13       -1.5440   27.3900   51.7850 C.ar    0  <0>0        0.0037
     27 Cl         -1.8690   30.3230   52.9660 Cl      0  <0>0       -0.0816
     28  C14       -1.3930   26.1380   51.2830 C.ar    0  <0>0        0.0297
     29  C15       -0.5930   25.1900   51.9170 C.ar    0  <0>0        0.1406
     30  F1        -0.4670   23.9500   51.3970 F       0  <0>0       -0.2042
@<TRIPOS>BOND
     1    28    26   ar
     2    28    29   ar
     3    30    29    1
     4    26    23   ar
     5    29    24   ar
     6    27    25    1
     7    23    22   ar
     8    23    25   ar
     9    24    22   ar
    10    22    21   ar
    11    25    20   ar
    12    20    21   ar
    13    20    17    1
    14    19    16    1
    15    17    16   am
    16    17    18    2
    17    16     1    1
    18    14    13    1
    19    14    15    1
    20    13    12    1
    21    15    10    1
    22     1     2    1
    23    12    11    1
    24    10    11    1
    25    10     2    1
    26     2     3    1
    27     3     4   ar
    28     3     9   ar
    29     4     5   ar
    30     9     7   ar
    31     5     6   ar
    32     7     6   ar
    33     6     8    1
