@<TRIPOS>MOLECULE
ZINC21629015_replica-1.pdb
 30 32 0 0 0
SMALL
GASTEIGER

@<TRIPOS>ATOM
      1  C12        3.7960   35.1640   55.2240 C.3     0  <0>0        0.1320
      2  C13        4.0120   36.6290   55.6090 C.3     0  <0>0        0.0219
      3  C11        3.5840   34.3430   56.4690 C.2     0  <0>0        0.2362
      4  N1         3.3530   34.9540   57.6480 N.am    0  <0>0       -0.2835
      5  H16        3.4080   36.0500   57.7190 H       0  <0>0        0.1549
      6  O1         3.6230   33.1320   56.4110 O.2     0  <0>0       -0.2739
      7  C10        3.0430   34.1940   58.7810 C.ar    0  <0>0        0.0463
      8  C5         4.0270   33.9100   59.7180 C.ar    0  <0>0       -0.0090
      9  C6         3.7170   33.1630   60.8380 C.ar    0  <0>0       -0.0031
     10  C7         2.4300   32.6900   61.0210 C.ar    0  <0>0       -0.0002
     11  C8         1.4490   32.9670   60.0860 C.ar    0  <0>0        0.0013
     12  C9         1.7520   33.7170   58.9670 C.ar    0  <0>0        0.0143
     13  C3         5.4310   34.4190   59.5160 C.3     0  <0>0        0.0236
     14  C4         5.6850   35.5990   60.4570 C.3     0  <0>0        0.0047
     15  C2         6.4280   33.3010   59.8210 C.3     0  <0>0        0.0044
     16  C1         6.4650   32.3170   58.6500 C.3     0  <0>0        0.0003
     17  S1         5.2520   34.5530   54.3390 S.3     0  <0>0       -0.0564
     18  C14        6.5260   35.3630   55.2500 C.2     0  <0>0        0.2383
     19  N2         6.9020   35.0910   56.5340 N.2     0  <0>0       -0.3261
     20  C15        7.9250   35.9660   56.8140 C.1     0  <0>0        0.1048
     21  N3         8.1140   36.6950   55.7390 N.2     0  <0>0       -0.1129
     22  N4         7.2920   36.3400   54.8180 N.pl3   0  <0>0       -0.1952
     23  H3         7.3070   36.8460   53.8420 H       0  <0>0        0.1783
     24  C16        8.6710   36.0670   58.0870 C.ar    0  <0>0        0.0754
     25  C21        9.4660   35.0030   58.5190 C.ar    0  <0>0        0.0119
     26  C20       10.1610   35.1020   59.7060 C.ar    0  <0>0        0.0121
     27  C19       10.0710   36.2540   60.4700 C.ar    0  <0>0        0.0577
     28  C18        9.2840   37.3120   60.0460 C.ar    0  <0>0        0.0121
     29 Cl         10.9480   36.3720   61.9620 Cl      0  <0>0       -0.0822
     30  C17        8.5890   37.2270   58.8570 C.ar    0  <0>0        0.0119
@<TRIPOS>BOND
     1    23    22    1
     2    17     1    1
     3    17    18    1
     4    22    18    1
     5    22    21    1
     6     1     2    1
     7     1     3    1
     8    18    19    2
     9    21    20    2
    10     6     3    2
    11     3     4   am
    12    19    20    2
    13    20    24    1
    14     4     5    1
    15     4     7    1
    16    24    25   ar
    17    24    30   ar
    18    25    26   ar
    19    16    15    1
    20     7    12   ar
    21     7     8   ar
    22    30    28   ar
    23    12    11   ar
    24    13     8    1
    25    13    15    1
    26    13    14    1
    27    26    27   ar
    28     8     9   ar
    29    28    27   ar
    30    11    10   ar
    31    27    29    1
    32     9    10   ar
