@<TRIPOS>MOLECULE
ZINC22076485_replica-1.pdb
 27 30 0 0 0
SMALL
GASTEIGER

@<TRIPOS>ATOM
      1  N2         5.6080   33.7580   59.4330 N.3     0  <0>0       -0.2908
      2  H11        6.0280   34.4700   60.1580 H       0  <0>0        0.1237
      3  C10        4.7740   34.4820   58.4630 C.3     0  <0>0        0.0737
      4  C9         4.3600   35.8310   59.0540 C.3     0  <0>0        0.0450
      5  C7         5.5920   36.6220   59.4120 C.ar    0  <0>0       -0.0024
      6  C5         6.5710   37.1820   58.4770 C.ar    0  <0>0        0.0131
      7  C4         7.5370   37.8310   59.2680 C.ar    0  <0>0        0.0563
      8  C6         6.6910   37.1860   57.0860 C.ar    0  <0>0        0.0012
      9  C3         8.6080   38.4670   58.6490 C.ar    0  <0>0        0.0170
     10  N1         7.1600   37.6690   60.5820 N.ar    0  <0>0       -0.3523
     11  C2         8.7100   38.4550   57.2750 C.ar    0  <0>0        0.0015
     12  C1         7.7540   37.8140   56.5000 C.ar    0  <0>0        0.0001
     13  C8         6.0000   36.9470   60.6490 C.ar    0  <0>0        0.0681
     14  H1         7.7740   38.0990   61.3870 H       0  <0>0        0.1660
     15  C11        6.7140   33.0620   58.7610 C.3     0  <0>0        0.1341
     16  C12        8.0120   33.7580   59.0790 C.ar    0  <0>0        0.1388
     17  O1         8.6110   33.7870   60.2810 O.2     0  <0>0       -0.4563
     18  C15        9.7510   34.4980   60.1960 C.ar    0  <0>0        0.1471
     19  C14        9.8850   34.9320   58.9140 C.ar    0  <0>0        0.0404
     20  C13        8.7680   34.4480   58.2040 C.ar    0  <0>0        0.0375
     21  C16       10.6940   34.7620   61.3030 C.ar    0  <0>0        0.0620
     22  C21       10.8920   36.0670   61.7620 C.ar    0  <0>0        0.1430
     23  C20       11.7730   36.3040   62.8000 C.ar    0  <0>0        0.0297
     24  F1        10.2200   37.0930   61.1930 F       0  <0>0       -0.2041
     25  C19       12.4630   35.2560   63.3770 C.ar    0  <0>0        0.0023
     26  C18       12.2760   33.9620   62.9240 C.ar    0  <0>0        0.0002
     27  C17       11.3970   33.7080   61.8920 C.ar    0  <0>0        0.0053
@<TRIPOS>BOND
     1    12     8   ar
     2    12    11   ar
     3     8     6   ar
     4    11     9   ar
     5    20    19   ar
     6    20    16   ar
     7     3     4    1
     8     3     1    1
     9     6     7   ar
    10     6     5   ar
    11     9     7   ar
    12    15    16    1
    13    15     1    1
    14    19    18   ar
    15     4     5    1
    16    16    17   ar
    17     7    10   ar
    18     5    13   ar
    19     1     2    1
    20    18    17   ar
    21    18    21    1
    22    10    13   ar
    23    10    14    1
    24    24    22    1
    25    21    22   ar
    26    21    27   ar
    27    22    23   ar
    28    27    26   ar
    29    23    25   ar
    30    26    25   ar
