@<TRIPOS>MOLECULE
ZINC36953717_replica-1.pdb
 20 21 0 0 0
SMALL
GASTEIGER

@<TRIPOS>ATOM
      1  C5        -1.1170   28.5120   53.1610 C.ar    0  <0>0       -0.0224
      2  C6         0.0450   28.5790   53.9080 C.ar    0  <0>0       -0.0030
      3  C7         0.3290   29.7120   54.6450 C.ar    0  <0>0        0.0140
      4  C8        -0.5550   30.7840   54.6350 C.ar    0  <0>0        0.0449
      5  C9        -1.7200   30.7140   53.8840 C.ar    0  <0>0        0.0140
      6  C10       -1.9960   29.5790   53.1440 C.ar    0  <0>0       -0.0030
      7  N1        -0.2700   31.9310   55.3800 N.pl3   0  <0>0       -0.3288
      8  H15       -0.5700   32.7990   55.0690 H       0  <0>0        0.1471
      9  C11        0.4820   31.8220   56.6330 C.3     0  <0>0        0.1188
     10  C12       -0.3900   31.1500   57.6950 C.3     0  <0>0        0.0286
     11  C13        0.8760   33.1980   57.1030 C.2     0  <0>0        0.1157
     12  N2         1.8300   33.8840   56.5070 N.2     0  <0>0       -0.4061
     13  C15        2.1660   35.0830   56.9150 C.2     0  <0>0        0.1344
     14  S1         1.1400   35.3430   58.2240 S.3     0  <0>0       -0.0795
     15  C16        3.2190   36.0020   56.3540 C.3     0  <0>0        0.0735
     16  C14        0.2670   33.7870   58.1650 C.3     0  <0>0        0.1201
     17  C3        -1.4240   27.2740   52.3590 C.3     0  <0>0        0.0223
     18  C4        -1.5780   27.6470   50.8830 C.3     0  <0>0        0.0047
     19  C2        -0.2810   26.2690   52.5130 C.3     0  <0>0        0.0044
     20  C1        -0.6000   25.0050   51.7120 C.3     0  <0>0        0.0003
@<TRIPOS>BOND
     1    18    17    1
     2    20    19    1
     3    17    19    1
     4    17     1    1
     5     6     1   ar
     6     6     5   ar
     7     1     2   ar
     8     5     4   ar
     9     2     3   ar
    10     4     3   ar
    11     4     7    1
    12     8     7    1
    13     7     9    1
    14    15    13    1
    15    12    13    2
    16    12    11    2
    17     9    11    1
    18     9    10    1
    19    13    14    1
    20    11    16    1
    21    16    14    1
