@<TRIPOS>MOLECULE
ZINC11049734_replica-1.pdb
 29 31 0 0 0
SMALL
GASTEIGER

@<TRIPOS>ATOM
      1  N3         7.9240   36.0710   59.0470 N.4     0  <0>0        0.3947
      2  H29        7.2280   35.4380   59.4580 H       0  <0>0       -0.0832
      3  H30        8.1690   36.7990   59.7300 H       0  <0>0       -0.0832
      4  C9         7.3550   36.7050   57.8430 C.3     0  <0>0       -0.0377
      5  C6         5.8860   36.3810   57.7610 C.ar    0  <0>0       -0.0421
      6  C5         5.2830   36.2110   56.5290 C.ar    0  <0>0       -0.0066
      7  C4         3.9350   35.9130   56.4540 C.ar    0  <0>0       -0.0047
      8  C3         3.1890   35.7860   57.6110 C.ar    0  <0>0       -0.0222
      9  C8         3.7920   35.9580   58.8420 C.ar    0  <0>0       -0.0047
     10  C7         5.1400   36.2500   58.9180 C.ar    0  <0>0       -0.0066
     11  C2         1.7200   35.4630   57.5290 C.3     0  <0>0        0.0264
     12  C1         1.1860   35.1610   58.9310 C.3     0  <0>0        0.0050
     13  C10        7.5390   38.2210   57.9280 C.3     0  <0>0       -0.0154
     14  C11        7.9150   38.6110   59.3580 C.3     0  <0>0       -0.0018
     15  C12        8.6530   38.6530   56.9710 C.3     0  <0>0       -0.0018
     16  C13        9.1330   35.3040   58.6990 C.3     0  <0>0        0.0190
     17  C14        8.7360   33.8910   58.2670 C.3     0  <0>0       -0.0139
     18  C15       10.0340   35.2260   59.9050 C.ar    0  <0>0        0.2068
     19  O1        10.7900   34.1740   60.2640 O.2     0  <0>0       -0.4216
     20  C16       11.4260   34.5320   61.3980 C.ar    0  <0>0        0.2494
     21  N2        11.0540   35.7590   61.6810 N.ar    0  <0>0       -0.1073
     22  N1        10.2240   36.1670   60.7870 N.ar    0  <0>0       -0.1136
     23  C17       12.3700   33.7020   62.1740 C.ar    0  <0>0        0.0548
     24  C22       11.9420   32.5040   62.7490 C.ar    0  <0>0        0.0004
     25  C21       12.8280   31.7330   63.4720 C.ar    0  <0>0       -0.0217
     26  C20       14.1400   32.1460   63.6290 C.ar    0  <0>0       -0.0043
     27  C23       12.3680   30.4400   64.0930 C.3     0  <0>0        0.0310
     28  C19       14.5700   33.3350   63.0680 C.ar    0  <0>0       -0.0002
     29  C18       13.6950   34.1120   62.3370 C.ar    0  <0>0        0.0047
@<TRIPOS>BOND
     1     7     6   ar
     2     7     8   ar
     3     6     5   ar
     4    15    13    1
     5    11     8    1
     6    11    12    1
     7     8     9   ar
     8     5     4    1
     9     5    10   ar
    10     4    13    1
    11     4     1    1
    12    13    14    1
    13    17    16    1
    14    16     1    1
    15    16    18    1
    16     9    10   ar
    17     1     2    1
    18     1     3    1
    19    18    19   ar
    20    18    22   ar
    21    19    20   ar
    22    22    21   ar
    23    20    21   ar
    24    20    23    1
    25    23    29   ar
    26    23    24   ar
    27    29    28   ar
    28    24    25   ar
    29    28    26   ar
    30    25    26   ar
    31    25    27    1
