@<TRIPOS>MOLECULE
ZINC22325589_replica-1.pdb
 25 26 0 0 0
SMALL
GASTEIGER

@<TRIPOS>ATOM
      1  C4        10.9160   33.7720   62.0390 C.3     0  <0>0        0.0052
      2  C5        11.5240   34.8560   61.1430 C.3     0  <0>0        0.0050
      3  C6        10.4340   35.8320   60.6960 C.3     0  <0>0        0.0268
      4  C7         9.2840   35.0390   60.0900 C.ar    0  <0>0       -0.0122
      5  C8         9.1460   33.7180   60.3310 C.ar    0  <0>0        0.0047
      6  S1         7.6970   33.2410   59.4330 S.2     0  <0>0       -0.0767
      7  C9         7.2760   34.7750   58.7460 C.ar    0  <0>0        0.0866
      8  C10        8.2710   35.6190   59.2220 C.ar    0  <0>0        0.0915
      9  C19       10.0340   32.8570   61.1770 C.3     0  <0>0        0.0327
     10  N1         6.2100   35.0830   57.9170 N.am    0  <0>0       -0.2755
     11  C14        5.0060   35.3730   58.4480 C.2     0  <0>0        0.2455
     12  O3         4.8550   35.3640   59.6550 O.2     0  <0>0       -0.2702
     13  H18        6.3470   35.0910   56.8260 H       0  <0>0        0.1556
     14  C15        3.8740   35.7010   57.5690 C.2     0  <0>0        0.0275
     15  C16        2.6360   35.7100   58.0540 C.2     0  <0>0       -0.0255
     16  C17        1.4750   36.0450   57.1530 C.3     0  <0>0        0.0305
     17  C18        4.1170   36.0260   56.1180 C.3     0  <0>0        0.0354
     18  C11        8.2970   37.0390   58.8680 C.2     0  <0>0        0.3426
     19  O1         7.8100   37.8620   59.6200 O.2     0  <0>0       -0.2448
     20  O2         8.8610   37.4340   57.7080 O.3     0  <0>0       -0.4454
     21  C12        8.1770   38.4780   56.9650 C.3     0  <0>0        0.2089
     22  C13        7.3860   37.8490   55.8150 C.3     0  <0>0        0.0513
     23  C3        12.0350   32.9490   62.6800 C.3     0  <0>0        0.0004
     24  C2        13.3440   33.7400   62.6280 C.3     0  <0>0        0.0000
     25  C1        14.4920   32.8600   63.1260 C.3     0  <0>0        0.0000
@<TRIPOS>BOND
     1    22    21    1
     2    17    14    1
     3    13    10    1
     4    21    20    1
     5    16    15    1
     6    14    15    2
     7    14    11    1
     8    20    18    1
     9    10    11   am
    10    10     7    1
    11    11    12    2
    12     7     8   ar
    13     7     6   ar
    14    18     8    1
    15    18    19    2
    16     8     4   ar
    17     6     5   ar
    18     4     5   ar
    19     4     3    1
    20     5     9    1
    21     3     2    1
    22     2     1    1
    23     9     1    1
    24     1    23    1
    25    24    23    1
    26    24    25    1
