@<TRIPOS>MOLECULE
ZINC36874499_replica-1.pdb
 27 30 0 0 0
SMALL
GASTEIGER

@<TRIPOS>ATOM
      1  C10        9.1920   35.6130   59.0570 C.ar    0  <0>0        0.1985
      2  C11        9.4340   36.7100   59.8530 C.ar    0  <0>0        0.0454
      3  C12       10.2640   36.2810   60.8940 C.ar    0  <0>0        0.0440
      4  C13       10.4960   34.9380   60.6930 C.ar    0  <0>0        0.1809
      5  O2         9.8370   34.5540   59.5850 O.2     0  <0>0       -0.4458
      6  C9         8.3660   35.5990   57.8440 C.2     0  <0>0        0.2808
      7  N1         7.1940   36.2660   57.8180 N.am    0  <0>0       -0.2962
      8  H9         6.8980   36.7560   58.6020 H       0  <0>0        0.1501
      9  O1         8.7380   34.9850   56.8620 O.2     0  <0>0       -0.2668
     10  C2         6.3700   36.2510   56.6080 C.3     0  <0>0        0.0945
     11  C1         6.5710   37.5580   55.8380 C.3     0  <0>0        0.0262
     12  C3         4.9190   36.1120   56.9900 C.ar    0  <0>0       -0.0044
     13  C8         3.9410   36.1490   56.0140 C.ar    0  <0>0       -0.0004
     14  C7         2.6100   36.0170   56.3620 C.ar    0  <0>0        0.0294
     15  C6         2.2570   35.8570   57.6910 C.ar    0  <0>0        0.1401
     16  C5         3.2370   35.8250   58.6690 C.ar    0  <0>0        0.0294
     17  F1         0.9550   35.7310   58.0340 F       0  <0>0       -0.2042
     18  C4         4.5670   35.9520   58.3170 C.ar    0  <0>0       -0.0004
     19  C14       11.3210   34.0700   61.5490 C.2     0  <0>0        0.1916
     20  S1        13.0130   34.2980   62.0790 S.3     0  <0>0       -0.0685
     21  C20       13.1430   32.8100   63.0400 C.3     0  <0>0        0.1283
     22  C15       11.8610   32.2320   62.8760 C.2     0  <0>0        0.1239
     23  C19       14.1300   32.2190   63.7920 C.2     0  <0>0       -0.0082
     24  N2        11.0030   32.9240   62.1140 N.2     0  <0>0       -0.3957
     25  C16       11.6450   30.9970   63.5360 C.2     0  <0>0        0.0288
     26  C17       12.6280   30.4220   64.2770 C.2     0  <0>0        0.0020
     27  C18       13.8760   31.0140   64.4200 C.2     0  <0>0       -0.0032
@<TRIPOS>BOND
     1    11    10    1
     2    13    14   ar
     3    13    12   ar
     4    14    15   ar
     5    10    12    1
     6    10     7    1
     7     9     6    2
     8    12    18   ar
     9    15    17    1
    10    15    16   ar
    11     7     6   am
    12     7     8    1
    13     6     1    1
    14    18    16   ar
    15     1     5   ar
    16     1     2   ar
    17     5     4   ar
    18     2     3   ar
    19     4     3   ar
    20     4    19    1
    21    19    20    1
    22    19    24    2
    23    20    21    1
    24    24    22    2
    25    22    21    1
    26    22    25    1
    27    21    23    1
    28    25    26    2
    29    23    27    2
    30    26    27    1
