@<TRIPOS>MOLECULE
ZINC02918464_replica-1.pdb
 25 28 0 0 0
SMALL
GASTEIGER

@<TRIPOS>ATOM
      1  C7         3.9560   35.4610   55.0290 C.3     0  <0>0        0.0965
      2  C8         4.8740   36.5240   55.6450 C.3     0  <0>0        0.0532
      3  C9         5.5640   35.9520   56.8900 C.3     0  <0>0        0.1351
      4  N1         6.1380   34.6490   56.5550 N.ar    0  <0>0       -0.2184
      5  C10        5.7670   33.9030   55.4870 C.ar    0  <0>0        0.2158
      6  N2         6.4800   32.8090   55.4900 N.ar    0  <0>0       -0.1903
      7  C11        7.3120   32.8210   56.5370 C.ar    0  <0>0        0.2220
      8  N3         7.1340   33.9280   57.2140 N.ar    0  <0>0       -0.1440
      9  N4         4.7790   34.3160   54.5960 N.pl3   0  <0>0       -0.3010
     10  H10        4.6390   33.8790   53.7420 H       0  <0>0        0.1499
     11  C12        6.6570   36.8890   57.3360 C.ar    0  <0>0        0.0381
     12  C17        6.6960   37.3330   58.6450 C.ar    0  <0>0        0.0577
     13  C16        7.7030   38.1880   59.0560 C.ar    0  <0>0        0.0113
     14 Cl          5.4860   36.8110   59.7750 Cl      0  <0>0       -0.0824
     15  C15        8.6640   38.6100   58.1550 C.ar    0  <0>0        0.0032
     16  C14        8.6230   38.1710   56.8450 C.ar    0  <0>0        0.0294
     17  C13        7.6190   37.3100   56.4330 C.ar    0  <0>0        0.1388
     18  F1         7.5790   36.8820   55.1530 F       0  <0>0       -0.2044
     19  C3         2.9520   35.0040   56.0560 C.ar    0  <0>0       -0.0039
     20  C2         2.3660   35.9240   56.9060 C.ar    0  <0>0       -0.0027
     21  C1         1.4440   35.5050   57.8480 C.ar    0  <0>0        0.0002
     22  C6         1.1080   34.1670   57.9400 C.ar    0  <0>0        0.0067
     23  C5         1.6950   33.2470   57.0880 C.ar    0  <0>0        0.0343
     24  C4         2.6150   33.6660   56.1460 C.ar    0  <0>0        0.0040
     25 Br          1.2350   31.4170   57.2130 Br      0  <0>0       -0.0490
@<TRIPOS>BOND
     1    10     9    1
     2     9     1    1
     3     9     5    1
     4     1     2    1
     5     1    19    1
     6    18    17    1
     7     5     6   ar
     8     5     4   ar
     9     6     7   ar
    10     2     3    1
    11    19    24   ar
    12    19    20   ar
    13    24    23   ar
    14    17    16   ar
    15    17    11   ar
    16     7     8   ar
    17     4     3    1
    18     4     8   ar
    19    16    15   ar
    20     3    11    1
    21    20    21   ar
    22    23    25    1
    23    23    22   ar
    24    11    12   ar
    25    21    22   ar
    26    15    13   ar
    27    12    13   ar
    28    12    14    1
