@<TRIPOS>MOLECULE
ZINC06795698_replica-1.pdb
 32 35 0 0 0
SMALL
GASTEIGER

@<TRIPOS>ATOM
      1  N1         5.9400   33.4460   56.2410 N.ar    0  <0>0       -0.3181
      2  C9         5.7480   32.5200   57.2370 C.ar    0  <0>0        0.0596
      3  C10        6.6160   31.8560   58.1000 C.ar    0  <0>0        0.0129
      4  C11        6.1180   30.9590   59.0180 C.ar    0  <0>0       -0.0204
      5  C12        4.7530   30.7080   59.0920 C.ar    0  <0>0       -0.0042
      6  C13        3.8820   31.3450   58.2590 C.ar    0  <0>0        0.0008
      7  C14        4.3650   32.2640   57.3160 C.ar    0  <0>0        0.0114
      8  C15        3.7390   33.0680   56.3340 C.ar    0  <0>0       -0.0200
      9  C16        4.7110   33.7790   55.7000 C.ar    0  <0>0        0.1349
     10  C25        7.0610   30.2420   59.9490 C.3     0  <0>0        0.0311
     11  C18        2.2610   33.1300   56.0470 C.3     0  <0>0       -0.0525
     12  N2         1.7450   34.4550   56.4160 N.4     0  <0>0        0.3868
     13  H15        2.4810   35.1390   56.3240 H       0  <0>0       -0.0840
     14  H26        0.9800   34.7000   55.8060 H       0  <0>0       -0.0840
     15  C19        1.2730   34.4270   57.8070 C.3     0  <0>0       -0.0732
     16  C20        1.8490   35.6240   58.5650 C.3     0  <0>0        0.0413
     17  C21        3.1630   35.2360   59.1930 C.ar    0  <0>0        0.1209
     18  O3         3.3370   34.2880   60.1270 O.2     0  <0>0       -0.4548
     19  C24        4.6380   34.2110   60.4510 C.ar    0  <0>0        0.1791
     20  C23        5.3100   35.1240   59.7280 C.ar    0  <0>0        0.0434
     21  C22        4.3590   35.7850   58.9170 C.ar    0  <0>0        0.0361
     22  C17        4.4910   34.7400   54.6160 C.2     0  <0>0        0.4029
     23  O1         3.9820   35.8280   54.8560 O.co2   0  <0>0       -0.2389
     24  O2         4.8160   34.4560   53.4700 O.co2   0  <0>0       -0.2389
     25  C8         7.2320   33.9970   55.8240 C.3     0  <0>0        0.1329
     26  C5         7.6430   35.0900   56.7760 C.ar    0  <0>0        0.0004
     27  C4         7.0990   36.3540   56.6530 C.ar    0  <0>0       -0.0027
     28  C3         7.4740   37.3570   57.5280 C.ar    0  <0>0       -0.0045
     29  C2         8.3940   37.0950   58.5260 C.ar    0  <0>0       -0.0219
     30  C1         8.8050   38.1880   59.4790 C.3     0  <0>0        0.0310
     31  C7         8.9430   35.8310   58.6440 C.ar    0  <0>0       -0.0045
     32  C6         8.5640   34.8280   57.7730 C.ar    0  <0>0       -0.0027
@<TRIPOS>BOND
     1    24    22   ar
     2    22    23   ar
     3    22     9    1
     4     9     1   ar
     5     9     8   ar
     6    14    12    1
     7    25     1    1
     8    25    26    1
     9    11     8    1
    10    11    12    1
    11     1     2   ar
    12    13    12    1
    13     8     7   ar
    14    12    15    1
    15    27    26   ar
    16    27    28   ar
    17    26    32   ar
    18     2     7   ar
    19     2     3   ar
    20     7     6   ar
    21    28    29   ar
    22    32    31   ar
    23    15    16    1
    24     3     4   ar
    25     6     5   ar
    26    29    31   ar
    27    29    30    1
    28    16    17    1
    29    21    17   ar
    30    21    20   ar
    31     4     5   ar
    32     4    10    1
    33    17    18   ar
    34    20    19   ar
    35    18    19   ar
