@<TRIPOS>MOLECULE
ZINC61849950_replica-1.pdb
 21 21 0 0 0
SMALL
GASTEIGER

@<TRIPOS>ATOM
      1  C6         5.8820   36.1460   57.9040 C.ar    0  <0>0        0.0489
      2  C7         4.9280   36.2260   58.9150 C.ar    0  <0>0        0.0146
      3  C8         3.6010   36.0040   58.6310 C.ar    0  <0>0        0.0039
      4  C9         3.2090   35.6980   57.3240 C.ar    0  <0>0        0.0302
      5  C10        4.1690   35.6180   56.3100 C.ar    0  <0>0        0.0606
      6  C11        5.4970   35.8470   56.6010 C.ar    0  <0>0        0.0260
      7 Cl          3.6890   35.2380   54.6850 Cl      0  <0>0       -0.0821
      8  N1         7.2240   36.3710   58.1950 N.pl3   0  <0>0       -0.3003
      9  C3         7.7500   36.0420   59.5230 C.3     0  <0>0        0.0910
     10  C2         9.2760   36.1310   59.5030 C.3     0  <0>0        0.0214
     11  C1         9.7540   36.9720   60.6880 C.3     0  <0>0        0.0018
     12  C4         8.1110   36.9370   57.1750 C.3     0  <0>0        0.1953
     13  C5         7.9200   38.4540   57.1180 C.3     0  <0>0        0.4156
     14  F1         7.0380   38.7740   56.0820 F       0  <0>0       -0.1682
     15  F2         7.3950   38.9040   58.3340 F       0  <0>0       -0.1682
     16  F3         9.1550   39.0700   56.8860 F       0  <0>0       -0.1682
     17  C12        1.7880   35.4600   57.0160 C.2     0  <0>0        0.0789
     18  S1         1.1520   33.8720   57.0810 S.2     0  <0>0       -0.0351
     19  N2         0.9880   36.4930   56.6850 N.am    0  <0>0       -0.3517
     20  H13        1.3630   37.3820   56.5770 H       0  <0>0        0.1428
     21  H14        0.0380   36.3490   56.5530 H       0  <0>0        0.1428
@<TRIPOS>BOND
     1     7     5    1
     2    14    13    1
     3     5     6   ar
     4     5     4   ar
     5    21    19    1
     6    20    19    1
     7     6     1   ar
     8    19    17    1
     9    16    13    1
    10    17    18    2
    11    17     4    1
    12    13    12    1
    13    13    15    1
    14    12     8    1
    15     4     3   ar
    16     1     8    1
    17     1     2   ar
    18     8     9    1
    19     3     2   ar
    20    10     9    1
    21    10    11    1
