@<TRIPOS>MOLECULE
ZINC05070399_replica-1.pdb
 22 24 0 0 0
SMALL
GASTEIGER

@<TRIPOS>ATOM
      1  N1         7.4080   35.5430   57.9440 N.am    0  <0>0       -0.3025
      2  C9         6.9390   36.1550   56.8370 C.2     0  <0>0        0.2460
      3  O1         7.4770   37.1660   56.4280 O.2     0  <0>0       -0.2701
      4  H16        6.9790   34.7370   58.2710 H       0  <0>0        0.1497
      5  C10        5.7780   35.5980   56.1250 C.ar    0  <0>0        0.0560
      6  C13        4.4880   35.4680   56.7830 C.ar    0  <0>0       -0.0153
      7  C12        3.5120   34.9300   56.0190 C.ar    0  <0>0        0.0035
      8  C14        4.2500   35.9210   58.2190 C.3     0  <0>0        0.0267
      9  S1         4.2850   34.6210   54.4550 S.2     0  <0>0       -0.0910
     10  C18        2.0930   34.6530   56.4050 C.3     0  <0>0        0.0326
     11  C11        5.8810   35.1850   54.8170 C.ar    0  <0>0        0.0393
     12  C17        1.4980   35.9020   57.0700 C.3     0  <0>0        0.0052
     13  C16        1.7640   35.8300   58.5700 C.3     0  <0>0        0.0007
     14  C15        3.1010   35.1260   58.8300 C.3     0  <0>0        0.0047
     15  C6         8.5640   36.0970   58.6530 C.3     0  <0>0        0.0718
     16  C5         8.0980   37.2020   59.6030 C.3     0  <0>0        0.0196
     17  C4         9.3050   37.7810   60.3440 C.3     0  <0>0        0.0017
     18  C3         9.9900   36.6720   61.1480 C.3     0  <0>0        0.0001
     19  C2        10.4560   35.5670   60.1970 C.3     0  <0>0        0.0016
     20  C1        11.1400   34.4590   61.0010 C.3     0  <0>0        0.0001
     21  C7         9.2480   34.9890   59.4560 C.3     0  <0>0        0.0180
     22  C8         8.2590   34.4080   60.4690 C.3     0  <0>0        0.0017
@<TRIPOS>BOND
     1     9    11   ar
     2     9     7   ar
     3    11     5   ar
     4     7    10    1
     5     7     6   ar
     6     5     6   ar
     7     5     2    1
     8    10    12    1
     9     3     2    2
    10     6     8    1
    11     2     1   am
    12    12    13    1
    13     1     4    1
    14     1    15    1
    15     8    14    1
    16    13    14    1
    17    15    21    1
    18    15    16    1
    19    21    19    1
    20    21    22    1
    21    16    17    1
    22    19    20    1
    23    19    18    1
    24    17    18    1
