@<TRIPOS>MOLECULE
ZINC30824575_replica-1.pdb
 30 31 0 0 0
SMALL
GASTEIGER

@<TRIPOS>ATOM
      1  C8         3.4210   33.1930   56.0380 C.ar    0  <0>0        0.2423
      2  N3         4.1290   32.6160   56.9690 N.ar    0  <0>0       -0.1099
      3  N4         3.3920   31.7840   57.6170 N.ar    0  <0>0       -0.1072
      4  C9         2.1780   31.8020   57.1180 C.ar    0  <0>0        0.2496
      5  O1         2.1760   32.6900   56.1050 O.2     0  <0>0       -0.4181
      6  C10        1.0290   30.9920   57.5780 C.ar    0  <0>0        0.0545
      7  C15        0.9400   30.5980   58.9130 C.ar    0  <0>0        0.0004
      8  C14       -0.1310   29.8380   59.3340 C.ar    0  <0>0       -0.0230
      9  C13       -1.1190   29.4710   58.4380 C.ar    0  <0>0       -0.0086
     10  C12       -1.0390   29.8630   57.1130 C.ar    0  <0>0       -0.0230
     11  C11        0.0280   30.6240   56.6780 C.ar    0  <0>0        0.0004
     12  C16       -0.2260   29.4050   60.7750 C.3     0  <0>0        0.0189
     13  C17       -0.2570   30.6410   61.6770 C.3     0  <0>0        0.0044
     14  C18       -1.5040   28.5910   60.9810 C.3     0  <0>0        0.0044
     15  C19        0.9900   28.5460   61.1310 C.3     0  <0>0        0.0044
     16  C20       -2.1200   29.4600   56.1430 C.3     0  <0>0        0.0189
     17  C21       -2.9460   30.6900   55.7620 C.3     0  <0>0        0.0044
     18  C22       -1.4800   28.8660   54.8850 C.3     0  <0>0        0.0044
     19  C23       -3.0270   28.4170   56.7950 C.3     0  <0>0        0.0044
     20  C7         3.9110   34.2300   55.0620 C.3     0  <0>0        0.1568
     21  N2         3.0560   35.4220   55.1420 N.3     0  <0>0       -0.2914
     22  H15        2.0040   35.1010   55.1480 H       0  <0>0        0.1236
     23  C6         3.3410   36.1930   56.3590 C.3     0  <0>0        0.0459
     24  C5         2.1380   36.1200   57.3020 C.3     0  <0>0       -0.0600
     25  N1         2.6080   35.9490   58.6830 N.4     0  <0>0        0.3878
     26  H39        2.3120   36.8420   59.2540 H       0  <0>0       -0.0797
     27  C2         1.9790   34.7810   59.3120 C.3     0  <0>0       -0.0774
     28  C1         0.5860   34.5680   58.7170 C.3     0  <0>0       -0.0250
     29  C3         4.0730   35.8480   58.7330 C.3     0  <0>0       -0.0774
     30  C4         4.4790   34.8220   59.7910 C.3     0  <0>0       -0.0250
@<TRIPOS>BOND
     1    18    16    1
     2    20    21    1
     3    20     1    1
     4    21    22    1
     5    21    23    1
     6    17    16    1
     7     1     5   ar
     8     1     2   ar
     9     5     4   ar
    10    16    19    1
    11    16    10    1
    12    23    24    1
    13    11    10   ar
    14    11     6   ar
    15     2     3   ar
    16    10     9   ar
    17     4     6    1
    18     4     3   ar
    19    24    25    1
    20     6     7   ar
    21     9     8   ar
    22    25    29    1
    23    25    26    1
    24    25    27    1
    25    28    27    1
    26    29    30    1
    27     7     8   ar
    28     8    12    1
    29    12    14    1
    30    12    15    1
    31    12    13    1
