@<TRIPOS>MOLECULE
ZINC38119166_replica-1.pdb
 23 24 0 0 0
SMALL
GASTEIGER

@<TRIPOS>ATOM
      1  C10        0.1050   28.9030   56.9340 C.3     0  <0>0        0.1007
      2  C11       -1.2390   29.3880   57.4800 C.3     0  <0>0        0.0267
      3  C7        -0.0930   28.3210   55.5580 C.ar    0  <0>0       -0.0041
      4  C6         0.4440   27.0860   55.2450 C.ar    0  <0>0       -0.0030
      5  C5         0.2620   26.5520   53.9830 C.ar    0  <0>0       -0.0045
      6  C4        -0.4570   27.2520   53.0330 C.ar    0  <0>0       -0.0225
      7  C9        -0.9900   28.4890   53.3440 C.ar    0  <0>0       -0.0045
      8  C8        -0.8110   29.0220   54.6070 C.ar    0  <0>0       -0.0030
      9  C2        -0.6550   26.6690   51.6580 C.3     0  <0>0        0.0224
     10  C1        -0.8580   25.1570   51.7690 C.3     0  <0>0        0.0047
     11  C3        -1.8860   27.3030   51.0090 C.3     0  <0>0        0.0047
     12  C12        0.6780   27.8300   57.8630 C.3     0  <0>0        0.1590
     13  O1         2.0880   28.0200   57.9990 O.3     0  <0>0       -0.3799
     14  H17        2.6190   27.4170   57.4620 H       0  <0>0        0.2105
     15  N1         1.0370   30.0300   56.8570 N.pl3   0  <0>0       -0.3301
     16  H18        1.8200   29.9740   56.2870 H       0  <0>0        0.1471
     17  C13        0.8000   31.1850   57.6060 C.ar    0  <0>0        0.0471
     18  C18        1.0970   31.2070   58.9620 C.ar    0  <0>0        0.0439
     19  C17        0.8660   32.3550   59.7000 C.ar    0  <0>0        0.1414
     20  C16        0.3290   33.4760   59.0870 C.ar    0  <0>0        0.0297
     21  F1         1.1590   32.3810   61.0180 F       0  <0>0       -0.2041
     22  C15        0.0290   33.4530   57.7380 C.ar    0  <0>0        0.0036
     23  C14        0.2620   32.3120   56.9960 C.ar    0  <0>0        0.0144
@<TRIPOS>BOND
     1    11     9    1
     2     9    10    1
     3     9     6    1
     4     6     7   ar
     5     6     5   ar
     6     7     8   ar
     7     5     4   ar
     8     8     3   ar
     9     4     3   ar
    10     3     1    1
    11    16    15    1
    12    15     1    1
    13    15    17    1
    14     1     2    1
    15     1    12    1
    16    23    17   ar
    17    23    22   ar
    18    14    13    1
    19    17    18   ar
    20    22    20   ar
    21    12    13    1
    22    18    19   ar
    23    20    19   ar
    24    19    21    1
