@<TRIPOS>MOLECULE
ZINC59566617_replica-1.pdb
 28 30 0 0 0
SMALL
GASTEIGER

@<TRIPOS>ATOM
      1  C8        11.3280   35.7490   62.3490 C.2     0  <0>0        0.0112
      2  C9        10.5830   35.6920   61.2150 C.2     0  <0>0        0.0857
      3  C10        9.4820   36.5680   60.7740 C.2     0  <0>0        0.2570
      4  O3         9.1070   37.5090   61.4500 O.2     0  <0>0       -0.2692
      5  N1         8.9210   36.2860   59.6100 N.am    0  <0>0       -0.2602
      6  C11        9.3590   35.2180   58.8590 C.2     0  <0>0        0.1659
      7  N2         8.9180   34.8020   57.6930 N.2     0  <0>0       -0.2235
      8  S1        10.6790   34.5400   59.8520 S.3     0  <0>0       -0.0483
      9  H8         8.1920   36.8380   59.2820 H       0  <0>0        0.1571
     10  C4        12.2050   34.6270   62.7080 C.ar    0  <0>0        0.0044
     11  C3        13.5870   34.8250   62.8240 C.ar    0  <0>0        0.0401
     12  C2        14.4060   33.7670   63.1620 C.ar    0  <0>0        0.1726
     13  C7        13.8600   32.5030   63.3810 C.ar    0  <0>0        0.1740
     14  C6        12.4900   32.3060   63.2720 C.ar    0  <0>0        0.0712
     15  C5        11.6630   33.3570   62.9350 C.ar    0  <0>0        0.0100
     16 Br         11.7550   30.5910   63.5800 Br      0  <0>0       -0.0457
     17  O1        15.7480   33.9560   63.2760 O.3     0  <0>0       -0.4684
     18  C1        16.2490   34.2940   64.5700 C.3     0  <0>0        0.2526
     19  O2        14.6700   31.4630   63.7080 O.3     0  <0>0       -0.5025
     20  H6        15.0650   31.5330   64.5880 H       0  <0>0        0.2923
     21  C12        7.9050   35.4750   57.0660 C.ar    0  <0>0        0.0946
     22  C17        6.5730   35.1360   57.3200 C.ar    0  <0>0        0.0858
     23  C16        5.5560   35.8240   56.6870 C.ar    0  <0>0        0.0697
     24 Cl          6.1980   33.8580   58.4340 Cl      0  <0>0       -0.0798
     25  C15        5.8550   36.8390   55.7940 C.ar    0  <0>0        0.0123
     26 Cl          3.9010   35.4110   57.0070 Cl      0  <0>0       -0.0813
     27  C14        7.1720   37.1750   55.5340 C.ar    0  <0>0        0.0025
     28  C13        8.1970   36.5000   56.1630 C.ar    0  <0>0        0.0201
@<TRIPOS>BOND
     1    27    25   ar
     2    27    28   ar
     3    25    23   ar
     4    28    21   ar
     5    23    26    1
     6    23    22   ar
     7    21    22   ar
     8    21     7    1
     9    22    24    1
    10     7     6    2
    11     6     5    1
    12     6     8    1
    13     9     5    1
    14     5     3   am
    15     8     2    1
    16     3     2    1
    17     3     4    2
    18     2     1    2
    19     1    10    1
    20    10    11   ar
    21    10    15   ar
    22    11    12   ar
    23    15    14   ar
    24    12    17    1
    25    12    13   ar
    26    14    13   ar
    27    14    16    1
    28    17    18    1
    29    13    19    1
    30    19    20    1
