@<TRIPOS>MOLECULE
ZINC49924670_replica-1.pdb
 25 26 0 0 0
SMALL
GASTEIGER

@<TRIPOS>ATOM
      1  C11       10.1670   35.3650   60.2320 C.3     0  <0>0        0.1344
      2  C8        10.9010   34.4340   61.1610 C.ar    0  <0>0        0.0043
      3  C7        12.1310   34.7990   61.6760 C.ar    0  <0>0       -0.0023
      4  C6        12.8040   33.9450   62.5300 C.ar    0  <0>0       -0.0045
      5  C5        12.2470   32.7270   62.8700 C.ar    0  <0>0       -0.0225
      6  C10       11.0180   32.3600   62.3520 C.ar    0  <0>0       -0.0045
      7  C9        10.3430   33.2160   61.5010 C.ar    0  <0>0       -0.0023
      8  C3        12.9800   31.7960   63.8010 C.3     0  <0>0        0.0223
      9  C4        14.4610   32.1750   63.8380 C.3     0  <0>0        0.0047
     10  C2        12.8340   30.3570   63.3010 C.3     0  <0>0        0.0044
     11  C1        12.2400   29.4890   64.4130 C.3     0  <0>0        0.0003
     12  C12        9.9330   36.7050   60.9320 C.3     0  <0>0        0.0550
     13  C13        8.4670   36.8080   61.3600 C.3     0  <0>0        0.0899
     14  N1         7.7670   37.7500   60.4840 N.pl3   0  <0>0       -0.3328
     15  H19        7.7910   38.7000   60.6760 H       0  <0>0        0.1468
     16  C14        7.0640   37.2790   59.3730 C.ar    0  <0>0        0.0406
     17  C19        7.4790   37.6180   58.0920 C.ar    0  <0>0       -0.0091
     18  C18        6.7860   37.1450   56.9940 C.ar    0  <0>0       -0.0073
     19  C20        8.6890   38.4960   57.8980 C.3     0  <0>0        0.0323
     20  C17        5.6730   36.3450   57.1710 C.ar    0  <0>0       -0.0221
     21  C16        5.2530   36.0100   58.4460 C.ar    0  <0>0       -0.0030
     22  C21        4.9150   35.8360   55.9710 C.3     0  <0>0        0.0310
     23  C15        5.9450   36.4740   59.5460 C.ar    0  <0>0        0.0137
     24  O1         8.9090   34.7880   59.8750 O.3     0  <0>0       -0.3800
     25  H29        8.9410   33.8330   59.7280 H       0  <0>0        0.2108
@<TRIPOS>BOND
     1    22    20    1
     2    18    20   ar
     3    18    17   ar
     4    20    21   ar
     5    19    17    1
     6    17    16   ar
     7    21    23   ar
     8    16    23   ar
     9    16    14    1
    10    25    24    1
    11    24     1    1
    12     1    12    1
    13     1     2    1
    14    14    15    1
    15    14    13    1
    16    12    13    1
    17     2     7   ar
    18     2     3   ar
    19     7     6   ar
    20     3     4   ar
    21     6     5   ar
    22     4     5   ar
    23     5     8    1
    24    10     8    1
    25    10    11    1
    26     8     9    1
