@<TRIPOS>MOLECULE
ZINC66323794_replica-1.pdb
 27 30 0 0 0
SMALL
GASTEIGER

@<TRIPOS>ATOM
      1  C7         7.6320   35.9960   56.2640 C.3     0  <0>0        0.2392
      2  C8         7.9620   35.2690   57.5900 C.3     0  <0>0        0.2190
      3  N1         8.6990   36.3060   58.3390 N.am    0  <0>0       -0.1987
      4  C9         8.4870   37.4860   57.7240 C.2     0  <0>0        0.4109
      5  O1         8.9830   38.5320   58.0880 O.2     0  <0>0       -0.2258
      6  O2         7.6680   37.3800   56.6620 O.3     0  <0>0       -0.4288
      7  C16        6.7010   34.8770   58.3150 C.ar    0  <0>0        0.0239
      8  C21        5.9870   35.8260   59.0220 C.ar    0  <0>0       -0.0002
      9  C20        4.8280   35.4670   59.6840 C.ar    0  <0>0       -0.0002
     10  C19        4.3880   34.1570   59.6470 C.ar    0  <0>0       -0.0000
     11  C18        5.1050   33.2070   58.9440 C.ar    0  <0>0       -0.0002
     12  C17        6.2620   33.5670   58.2790 C.ar    0  <0>0       -0.0002
     13  O3         8.7910   34.1300   57.3530 O.3     0  <0>0       -0.3637
     14  H16        9.4670   33.9870   58.0290 H       0  <0>0        0.2125
     15  C4         6.2610   35.6140   55.7680 C.ar    0  <0>0        0.0218
     16  C3         6.0660   34.3950   55.1480 C.ar    0  <0>0       -0.0007
     17  C2         4.8080   34.0450   54.6930 C.ar    0  <0>0       -0.0002
     18  C1         3.7460   34.9140   54.8600 C.ar    0  <0>0       -0.0000
     19  C6         3.9420   36.1330   55.4810 C.ar    0  <0>0       -0.0002
     20  C5         5.1990   36.4840   55.9340 C.ar    0  <0>0       -0.0007
     21  C10        9.4760   36.1010   59.4860 C.ar    0  <0>0        0.0595
     22  C15       10.2700   34.9670   59.5930 C.ar    0  <0>0        0.0174
     23  C14       11.0420   34.7700   60.7220 C.ar    0  <0>0        0.0309
     24  C13       11.0130   35.6950   61.7520 C.ar    0  <0>0        0.1402
     25  C12       10.2180   36.8240   61.6490 C.ar    0  <0>0        0.0309
     26  F1        11.7640   35.4980   62.8570 F       0  <0>0       -0.2042
     27  C11        9.4490   37.0280   60.5190 C.ar    0  <0>0        0.0174
@<TRIPOS>BOND
     1    17    18   ar
     2    17    16   ar
     3    18    19   ar
     4    16    15   ar
     5    19    20   ar
     6    15    20   ar
     7    15     1    1
     8     1     6    1
     9     1     2    1
    10     6     4    1
    11    13     2    1
    12    13    14    1
    13     2     7    1
    14     2     3    1
    15     4     5    2
    16     4     3   am
    17    12     7   ar
    18    12    11   ar
    19     7     8   ar
    20     3    21    1
    21    11    10   ar
    22     8     9   ar
    23    21    22   ar
    24    21    27   ar
    25    22    23   ar
    26    10     9   ar
    27    27    25   ar
    28    23    24   ar
    29    25    24   ar
    30    24    26    1
