@<TRIPOS>MOLECULE
ZINC65620775_replica-1.pdb
 27 29 0 0 0
SMALL
GASTEIGER

@<TRIPOS>ATOM
      1  N1         1.0360   30.8000   55.5090 N.am    0  <0>0       -0.3039
      2  C11        1.1760   31.7800   56.4250 C.2     0  <0>0        0.2267
      3  O1         0.4520   31.8090   57.3970 O.2     0  <0>0       -0.2750
      4  H14        1.6160   30.7770   54.7320 H       0  <0>0        0.1494
      5  C12        2.2350   32.8370   56.2410 C.3     0  <0>0        0.1369
      6  C13        1.7110   34.1770   56.7620 C.3     0  <0>0        0.2275
      7  N2         2.7410   34.8170   57.5850 N.am    0  <0>0       -0.1141
      8  C15        3.7870   35.5830   57.1530 C.1     0  <0>0        0.1797
      9  N4         4.4620   35.9580   58.2160 N.2     0  <0>0        0.0474
     10  S1         4.1590   35.9940   55.4810 S.2     0  <0>0        0.0561
     11  N3         3.9190   35.4760   59.2760 N.2     0  <0>0        0.0931
     12  C14        2.8600   34.7660   58.9560 C.2     0  <0>0        0.3699
     13  C16        1.9690   34.0540   59.8870 C.ar    0  <0>0        0.1152
     14  S2         2.2170   32.4860   60.7040 S.2     0  <0>0       -0.0790
     15  C19        0.6780   32.4250   61.6050 C.ar    0  <0>0        0.0357
     16  C18        0.0770   33.5820   61.2260 C.ar    0  <0>0        0.0077
     17  C17        0.7290   34.4200   60.3480 C.ar    0  <0>0        0.0146
     18  C10        0.0080   29.7720   55.6880 C.3     0  <0>0        0.0940
     19  C9        -0.9520   29.7990   54.4970 C.3     0  <0>0        0.0473
     20  C5        -0.8260   28.5140   53.7200 C.ar    0  <0>0       -0.0244
     21  C4        -0.0020   27.5050   54.1830 C.ar    0  <0>0       -0.0048
     22  C3         0.1130   26.3260   53.4700 C.ar    0  <0>0       -0.0046
     23  C2        -0.5960   26.1560   52.2950 C.ar    0  <0>0       -0.0222
     24  C1        -0.4700   24.8710   51.5180 C.3     0  <0>0        0.0310
     25  C7        -1.4150   27.1680   51.8310 C.ar    0  <0>0       -0.0088
     26  C6        -1.5340   28.3450   52.5450 C.ar    0  <0>0       -0.0261
     27  C8        -2.4310   29.4460   52.0410 C.3     0  <0>0        0.0307
@<TRIPOS>BOND
     1    24    23    1
     2    25    23   ar
     3    25    26   ar
     4    27    26    1
     5    23    22   ar
     6    26    20   ar
     7    22    21   ar
     8    20    21   ar
     9    20    19    1
    10    19    18    1
    11     4     1    1
    12    10     8    2
    13     1    18    1
    14     1     2   am
    15     5     2    1
    16     5     6    1
    17     2     3    2
    18     6     7    1
    19     8     7    1
    20     8     9    2
    21     7    12    1
    22     9    11    1
    23    12    11    2
    24    12    13    1
    25    13    17   ar
    26    13    14   ar
    27    17    16   ar
    28    14    15   ar
    29    16    15   ar
