@<TRIPOS>MOLECULE
ZINC27641195_replica-1.pdb
 26 27 0 0 0
SMALL
GASTEIGER

@<TRIPOS>ATOM
      1  C9         8.7560   34.1770   57.5480 C.3     0  <0>0        0.0493
      2  C10        8.0790   32.8050   57.2480 C.3     0  <0>0        0.1192
      3  C11        7.1910   33.1800   56.0090 C.3     0  <0>0        0.0324
      4  C12        6.4550   34.3640   56.7360 C.3     0  <0>0        0.0328
      5  C13        7.6790   35.2250   57.1830 C.3     0  <0>0        0.0132
      6  C21        6.0330   33.6180   58.0410 C.3     0  <0>0        0.1421
      7  O3         7.0740   32.6520   58.2870 O.3     0  <0>0       -0.3559
      8  C8         9.1160   34.2770   59.0080 C.2     0  <0>0       -0.0262
      9  C7         9.8480   35.2750   59.4360 C.2     0  <0>0       -0.0017
     10  C6        10.2080   35.3760   60.8950 C.3     0  <0>0        0.1365
     11  C5        11.5020   34.6030   61.1570 C.3     0  <0>0        0.0594
     12  C4        12.1840   35.1630   62.3790 C.2     0  <0>0       -0.0278
     13  C3        12.6380   34.3540   63.3040 C.2     0  <0>0       -0.0306
     14  C2        12.6350   32.8650   63.0700 C.3     0  <0>0        0.0257
     15  C1        14.0310   32.3020   63.3470 C.3     0  <0>0        0.0050
     16  O4        10.3940   36.7490   61.2460 O.3     0  <0>0       -0.3797
     17  H31       10.2200   37.5370   60.4990 H       0  <0>0        0.2108
     18  C14        8.1580   36.1160   56.0350 C.3     0  <0>0        0.0262
     19  C15        7.2320   37.2960   55.8940 C.2     0  <0>0       -0.0307
     20  C16        7.5020   38.4170   56.5150 C.2     0  <0>0       -0.0307
     21  C17        8.8190   38.5850   57.2300 C.3     0  <0>0        0.0263
     22  C18        8.5890   38.5330   58.7410 C.3     0  <0>0        0.0165
     23  C19        7.0960   38.6980   59.0350 C.3     0  <0>0        0.1144
     24  C20        6.6380   37.5900   59.9480 C.2     0  <0>0        0.3649
     25  O1         7.3540   37.2130   60.8460 O.co2   0  <0>0       -0.2457
     26  O2         5.4360   37.0220   59.7640 O.co2   0  <0>0       -0.2457
@<TRIPOS>BOND
     1    19    18    1
     2    19    20    2
     3     3     4    1
     4     3     2    1
     5    18     5    1
     6    20    21    1
     7     4     5    1
     8     4     6    1
     9     5     1    1
    10    21    22    1
    11     2     1    1
    12     2     7    1
    13     1     8    1
    14     6     7    1
    15    22    23    1
    16     8     9    2
    17    23    24    1
    18     9    10    1
    19    26    24   ar
    20    24    25   ar
    21    17    16    1
    22    10    11    1
    23    10    16    1
    24    11    12    1
    25    12    13    2
    26    14    13    1
    27    14    15    1
