@<TRIPOS>MOLECULE
ZINC13343078_replica-1.pdb
 27 28 0 0 0
SMALL
GASTEIGER

@<TRIPOS>ATOM
      1  N1         6.3260   34.4060   58.4280 N.3     0  <0>0       -0.1760
      2  H15        5.7830   34.4590   59.2310 H       0  <0>0        0.1491
      3  S1         7.4780   33.2260   58.2830 S.O2    0  <0>0        0.0605
      4  O1         6.9070   32.0340   58.8040 O.2     0  <0>0       -0.1530
      5  O2         7.9860   33.3140   56.9600 O.2     0  <0>0       -0.1530
      6  C8         8.8050   33.6600   59.3610 C.ar    0  <0>0        0.1219
      7  C7         9.1150   32.8480   60.4360 C.ar    0  <0>0        0.0196
      8  C6        10.1560   33.1880   61.2800 C.ar    0  <0>0       -0.0029
      9  C5        10.8850   34.3390   61.0500 C.ar    0  <0>0       -0.0224
     10  C10       10.5750   35.1500   59.9750 C.ar    0  <0>0       -0.0029
     11  C9         9.5370   34.8080   59.1270 C.ar    0  <0>0        0.0196
     12  C3        12.0180   34.7100   61.9710 C.3     0  <0>0        0.0223
     13  C4        11.6960   36.0330   62.6700 C.3     0  <0>0        0.0047
     14  C2        12.2040   33.6110   63.0190 C.3     0  <0>0        0.0044
     15  C1        13.6880   33.2500   63.1230 C.3     0  <0>0        0.0003
     16  C11        6.1240   35.3700   57.3430 C.3     0  <0>0        0.1097
     17  C12        4.6400   35.7270   57.2470 C.3     0  <0>0        0.1359
     18  C13        3.8330   34.7400   58.0510 C.2     0  <0>0        0.3666
     19  O3         3.5210   33.6780   57.5660 O.co2   0  <0>0       -0.2456
     20  O4         3.4620   35.0400   59.3050 O.co2   0  <0>0       -0.2456
     21  C14        6.9230   36.6170   57.6250 C.ar    0  <0>0        0.0047
     22  C19        7.7830   37.1210   56.6660 C.ar    0  <0>0        0.0550
     23  C18        8.5110   38.2680   56.9230 C.ar    0  <0>0        0.0111
     24 Cl          7.9410   36.3160   55.1360 Cl      0  <0>0       -0.0825
     25  C17        8.3840   38.9080   58.1410 C.ar    0  <0>0        0.0008
     26  C16        7.5270   38.4020   59.1020 C.ar    0  <0>0       -0.0002
     27  C15        6.7990   37.2560   58.8450 C.ar    0  <0>0       -0.0021
@<TRIPOS>BOND
     1    24    22    1
     2    22    23   ar
     3    22    21   ar
     4    23    25   ar
     5     5     3    2
     6    17    16    1
     7    17    18    1
     8    16    21    1
     9    16     1    1
    10    19    18   ar
    11    21    27   ar
    12    18    20   ar
    13    25    26   ar
    14     3     1    1
    15     3     4    2
    16     3     6    1
    17     1     2    1
    18    27    26   ar
    19    11     6   ar
    20    11    10   ar
    21     6     7   ar
    22    10     9   ar
    23     7     8   ar
    24     9     8   ar
    25     9    12    1
    26    12    13    1
    27    12    14    1
    28    14    15    1
