@<TRIPOS>MOLECULE
ZINC14075620_replica-1.pdb
 26 29 0 0 0
SMALL
GASTEIGER

@<TRIPOS>ATOM
      1  N1         6.6600   36.9310   57.1020 N.ar    0  <0>0       -0.3272
      2  C3         7.3430   37.0710   58.2970 C.ar    0  <0>0        0.0599
      3  C4         8.4970   37.7690   58.6400 C.ar    0  <0>0        0.0172
      4  C5         8.9650   37.7340   59.9360 C.ar    0  <0>0        0.0015
      5  C6         8.2980   37.0020   60.9070 C.ar    0  <0>0        0.0001
      6  C7         7.1510   36.3090   60.5870 C.ar    0  <0>0        0.0015
      7  C8         6.6660   36.3360   59.2820 C.ar    0  <0>0        0.0172
      8  C9         5.5030   35.7190   58.6200 C.ar    0  <0>0        0.0185
      9  C10        5.5500   36.1200   57.2770 C.ar    0  <0>0        0.0600
     10  C11        4.5630   35.6840   56.3970 C.ar    0  <0>0        0.0185
     11  C12        3.5500   34.8640   56.8470 C.ar    0  <0>0        0.0173
     12  C13        3.5020   34.4660   58.1790 C.ar    0  <0>0        0.0649
     13  C14        4.4750   34.8910   59.0660 C.ar    0  <0>0        0.0173
     14  N2         2.4670   33.6330   58.6230 N.pl3   0  <0>0       -0.2146
     15  H13        2.6160   32.6780   58.7040 H       0  <0>0        0.1737
     16  S1         0.9920   34.2770   59.0080 S.O2    0  <0>0        0.0793
     17  O1         1.2120   35.6480   59.3080 O.2     0  <0>0       -0.1494
     18  O2         0.0870   33.8550   57.9960 O.2     0  <0>0       -0.1494
     19  C15        0.4640   33.5130   60.5060 C.ar    0  <0>0        0.1543
     20  S2         0.5640   31.7970   60.9890 S.2     0  <0>0       -0.0713
     21  C18       -0.1800   31.9460   62.6040 C.ar    0  <0>0        0.0089
     22  C17       -0.4570   33.2720   62.6640 C.ar    0  <0>0        0.0041
     23  C19       -0.4390   30.8750   63.6320 C.3     0  <0>0        0.0382
     24  C16       -0.1270   34.0750   61.5890 C.ar    0  <0>0        0.0270
     25  C2         7.0550   37.5500   55.8340 C.3     0  <0>0        0.1061
     26  C1         7.7650   36.5150   54.9600 C.3     0  <0>0        0.0265
@<TRIPOS>BOND
     1    26    25    1
     2    25     1    1
     3    10    11   ar
     4    10     9   ar
     5    11    12   ar
     6     1     9   ar
     7     1     2   ar
     8     9     8   ar
     9    18    16    2
    10    12    14    1
    11    12    13   ar
    12     2     3   ar
    13     2     7   ar
    14     8    13   ar
    15     8     7   ar
    16    14    15    1
    17    14    16    1
    18     3     4   ar
    19    16    17    2
    20    16    19    1
    21     7     6   ar
    22     4     5   ar
    23    19    20   ar
    24    19    24   ar
    25     6     5   ar
    26    20    21   ar
    27    24    22   ar
    28    21    22   ar
    29    21    23    1
