@<TRIPOS>MOLECULE
ZINC22605069_replica-1.pdb
 22 24 0 0 0
SMALL
GASTEIGER

@<TRIPOS>ATOM
      1  N1         8.9410   36.4810   58.8170 N.am    0  <0>0       -0.2543
      2  C8         9.2550   35.2000   58.5420 C.3     0  <0>0        0.2218
      3  N2         9.9890   34.4840   59.3480 N.2     0  <0>0       -0.2518
      4  C9        10.4680   34.9950   60.4960 C.2     0  <0>0        0.0648
      5  C10       10.1740   36.3050   60.8350 C.3     0  <0>0        0.1305
      6  C11        9.3850   37.0630   59.9520 C.2     0  <0>0        0.2333
      7  O1         9.1040   38.2230   60.2070 O.2     0  <0>0       -0.2744
      8  C7         8.1130   37.2460   57.8820 C.3     0  <0>0        0.1220
      9  C6         6.6930   36.7440   57.9410 C.ar    0  <0>0       -0.0022
     10  C1         6.0710   36.2930   56.7920 C.ar    0  <0>0       -0.0021
     11  C2         4.7700   35.8280   56.8470 C.ar    0  <0>0        0.0064
     12  C3         4.0880   35.8240   58.0500 C.ar    0  <0>0        0.0345
     13  C4         4.7090   36.2810   59.1990 C.ar    0  <0>0        0.0064
     14 Br          2.3060   35.1940   58.1250 Br      0  <0>0       -0.0490
     15  C5         6.0110   36.7410   59.1440 C.ar    0  <0>0       -0.0021
     16  C12       11.3000   34.1600   61.3940 C.ar    0  <0>0        0.0137
     17  C17       12.5980   34.5570   61.7150 C.ar    0  <0>0        0.0020
     18  C16       13.3690   33.7760   62.5510 C.ar    0  <0>0        0.0114
     19  C15       12.8550   32.6010   63.0730 C.ar    0  <0>0        0.0577
     20  C14       11.5660   32.2030   62.7580 C.ar    0  <0>0        0.0114
     21 Cl         13.8290   31.6240   64.1260 Cl      0  <0>0       -0.0822
     22  C13       10.7850   32.9780   61.9260 C.ar    0  <0>0        0.0020
@<TRIPOS>BOND
     1    10    11   ar
     2    10     9   ar
     3    11    12   ar
     4     8     9    1
     5     8     1    1
     6     9    15   ar
     7    12    14    1
     8    12    13   ar
     9     2     1    1
    10     2     3    1
    11     1     6   am
    12    15    13   ar
    13     3     4    2
    14     6     7    2
    15     6     5    1
    16     4     5    1
    17     4    16    1
    18    16    17   ar
    19    16    22   ar
    20    17    18   ar
    21    22    20   ar
    22    18    19   ar
    23    20    19   ar
    24    19    21    1
