@<TRIPOS>MOLECULE
ZINC13496740_replica-1.pdb
 25 26 0 0 0
SMALL
GASTEIGER

@<TRIPOS>ATOM
      1  N1         2.1210   31.9150   55.9650 N.am    0  <0>0       -0.3140
      2  H21        2.6800   31.8680   55.1730 H       0  <0>0        0.1487
      3  C9         2.5930   32.6340   57.1510 C.3     0  <0>0        0.0932
      4  C10        3.4480   31.6980   58.0080 C.3     0  <0>0        0.0261
      5  C6         3.4190   33.8200   56.7250 C.ar    0  <0>0       -0.0043
      6  C5         3.6730   34.0370   55.3830 C.ar    0  <0>0        0.0004
      7  C4         4.4290   35.1240   54.9890 C.ar    0  <0>0        0.0366
      8  C3         4.9360   35.9970   55.9410 C.ar    0  <0>0        0.1385
      9  C8         4.6850   35.7730   57.2870 C.ar    0  <0>0        0.0366
     10  C7         3.9230   34.6890   57.6760 C.ar    0  <0>0        0.0004
     11  O1         5.6820   37.0660   55.5570 O.3     0  <0>0       -0.4755
     12  C2         7.0870   37.0020   55.8120 C.3     0  <0>0        0.2055
     13  C1         7.5260   38.2610   56.5630 C.3     0  <0>0        0.0512
     14  C11        0.8960   31.3120   55.9730 C.2     0  <0>0        0.1318
     15  S1        -0.3300   31.9360   56.9030 S.2     0  <0>0       -0.0188
     16  N2         0.6790   30.1950   55.2180 N.am    0  <0>0       -0.3124
     17  H14        1.3810   29.5320   55.1190 H       0  <0>0        0.1487
     18  C12       -0.6140   29.9970   54.5580 C.3     0  <0>0        0.1156
     19  C13       -0.6010   28.6880   53.8110 C.ar    0  <0>0       -0.0025
     20  C18       -1.3040   28.5610   52.6260 C.ar    0  <0>0       -0.0018
     21  C17       -1.2880   27.3630   51.9380 C.ar    0  <0>0        0.0111
     22  C16       -0.5790   26.2860   52.4400 C.ar    0  <0>0        0.0577
     23  C15        0.1190   26.4120   53.6290 C.ar    0  <0>0        0.0111
     24 Cl         -0.5640   24.7790   51.5800 Cl      0  <0>0       -0.0822
     25  C14        0.1070   27.6120   54.3130 C.ar    0  <0>0       -0.0018
@<TRIPOS>BOND
     1    24    22    1
     2    21    22   ar
     3    21    20   ar
     4    22    23   ar
     5    20    19   ar
     6    23    25   ar
     7    19    25   ar
     8    19    18    1
     9    18    16    1
    10     7     6   ar
    11     7     8   ar
    12    17    16    1
    13     2     1    1
    14    16    14    1
    15     6     5   ar
    16    11    12    1
    17    11     8    1
    18    12    13    1
    19     8     9   ar
    20     1    14    1
    21     1     3    1
    22    14    15    2
    23     5     3    1
    24     5    10   ar
    25     3     4    1
    26     9    10   ar
