@<TRIPOS>MOLECULE
ZINC49374149_replica-1.pdb
 22 22 0 0 0
SMALL
GASTEIGER

@<TRIPOS>ATOM
      1  C6        11.1370   35.3160   61.6180 C.ar    0  <0>0        0.0451
      2  C7        10.5870   36.5740   61.8380 C.ar    0  <0>0        0.0156
      3  C8         9.7410   37.1290   60.8970 C.ar    0  <0>0        0.0199
      4  C9         9.4410   36.4360   59.7390 C.ar    0  <0>0        0.1143
      5  C10        9.9870   35.1840   59.5180 C.ar    0  <0>0        0.0199
      6  C11       10.8390   34.6260   60.4510 C.ar    0  <0>0        0.0156
      7  N1        11.9930   34.7520   62.5670 N.pl3   0  <0>0       -0.3254
      8  H10       12.1030   35.1750   63.4330 H       0  <0>0        0.1472
      9  C4        12.7260   33.5240   62.2540 C.3     0  <0>0        0.1695
     10  C5        14.2060   33.7130   62.5870 C.3     0  <0>0        0.0333
     11  C3        12.1680   32.3850   63.0680 C.2     0  <0>0        0.3349
     12  O2        10.9750   32.1930   63.1010 O.2     0  <0>0       -0.2483
     13  O1        12.9960   31.5850   63.7580 O.3     0  <0>0       -0.4474
     14  C2        12.8820   30.1790   63.5270 C.3     0  <0>0        0.2086
     15  C1        12.4420   29.4840   64.8160 C.3     0  <0>0        0.0513
     16  S1         8.3610   37.1470   58.5430 S.O2    0  <0>0        0.0920
     17  O3         8.7100   38.5230   58.5120 O.2     0  <0>0       -0.1612
     18  O4         8.5150   36.3340   57.3870 O.2     0  <0>0       -0.1612
     19  C12        6.6980   36.9400   59.2350 C.3     0  <0>0        0.5262
     20  F1         6.2740   38.1460   59.8030 F       0  <0>0       -0.1500
     21  F2         5.8120   36.5670   58.2180 F       0  <0>0       -0.1500
     22  F3         6.7220   35.9440   60.2180 F       0  <0>0       -0.1500
@<TRIPOS>BOND
     1    18    16    2
     2    21    19    1
     3    17    16    2
     4    16    19    1
     5    16     4    1
     6    19    20    1
     7    19    22    1
     8     5     4   ar
     9     5     6   ar
    10     4     3   ar
    11     6     1   ar
    12     3     2   ar
    13     1     2   ar
    14     1     7    1
    15     9     7    1
    16     9    10    1
    17     9    11    1
    18     7     8    1
    19    11    12    2
    20    11    13    1
    21    14    13    1
    22    14    15    1
