@<TRIPOS>MOLECULE
ZINC39457090_replica-1.pdb
 24 27 0 0 0
SMALL
GASTEIGER

@<TRIPOS>ATOM
      1  C1         4.8930   32.2490   57.1850 C.3     0  <0>0        0.0534
      2  C2         6.1120   33.0820   57.4870 C.ar    0  <0>0        0.0754
      3  C3         6.7070   33.9530   56.6350 C.ar    0  <0>0        0.1500
      4  C4         7.7970   34.5210   57.2990 C.ar    0  <0>0        0.0260
      5  C5         7.8280   33.9780   58.5600 C.ar    0  <0>0        0.0977
      6  N1         6.7990   33.0910   58.6680 N.ar    0  <0>0       -0.2803
      7  C7         8.8260   34.3790   59.5690 C.2     0  <0>0        0.1518
      8  C8         9.0790   35.8220   59.7010 C.2     0  <0>0        0.0896
      9  C9        10.0380   36.2550   60.6080 C.2     0  <0>0        0.1332
     10  C10       10.7070   35.2760   61.3750 C.3     0  <0>0        0.1244
     11  C11       11.6900   35.6500   62.3050 C.2     0  <0>0       -0.0127
     12  C12       12.3150   34.6960   63.0490 C.2     0  <0>0       -0.0037
     13  C13       11.9920   33.3500   62.8990 C.2     0  <0>0        0.0020
     14  C14       11.0490   32.9500   62.0020 C.2     0  <0>0        0.0283
     15  C15       10.3850   33.9060   61.2110 C.2     0  <0>0        0.1191
     16  N2         9.4680   33.5110   60.3160 N.2     0  <0>0       -0.4039
     17  F1        10.3230   37.5680   60.7490 F       0  <0>0       -0.2079
     18  C16        8.2920   36.7420   58.8880 C.2     0  <0>0        0.1778
     19  O1         7.4080   37.3900   59.4090 O.2     0  <0>0       -0.2912
     20  C17        8.5570   36.9040   57.4080 C.3     0  <0>0        0.0741
     21  C18        8.7870   35.5240   56.7790 C.3     0  <0>0        0.0384
     22  F2         6.3160   34.2240   55.3710 F       0  <0>0       -0.2032
     23  S1         6.4440   32.1750   60.0020 S.3     0  <0>0       -0.0321
     24  C6         7.3400   30.6240   59.7190 C.3     0  <0>0        0.0938
@<TRIPOS>BOND
     1    22     3    1
     2     3     4   ar
     3     3     2   ar
     4    21     4    1
     5    21    20    1
     6     1     2    1
     7     4     5   ar
     8    20    18    1
     9     2     6   ar
    10     5     6   ar
    11     5     7    1
    12     6    23    1
    13    18    19    2
    14    18     8    1
    15     7     8    1
    16     7    16    2
    17     8     9    2
    18    24    23    1
    19    16    15    2
    20     9    17    1
    21     9    10    1
    22    15    10    1
    23    15    14    1
    24    10    11    1
    25    14    13    2
    26    11    12    2
    27    13    12    1
