@<TRIPOS>MOLECULE
ZINC36854646_replica-1.pdb
 23 24 0 0 0
SMALL
GASTEIGER

@<TRIPOS>ATOM
      1  C8         8.4300   35.9500   57.7340 C.3     0  <0>0        0.1685
      2  O1         7.9220   34.6400   57.4670 O.3     0  <0>0       -0.3515
      3  C6         6.5540   34.4610   57.8370 C.3     0  <0>0        0.1156
      4  C5         5.7580   33.9780   56.6230 C.3     0  <0>0        0.0272
      5  C4         6.3320   32.6470   56.1320 C.3     0  <0>0        0.0024
      6  C3         6.2370   31.6080   57.2500 C.3     0  <0>0        0.0002
      7  C2         7.0330   32.0910   58.4650 C.3     0  <0>0        0.0024
      8  C1         8.4990   32.2820   58.0700 C.3     0  <0>0        0.0001
      9  C7         6.4590   33.4220   58.9550 C.3     0  <0>0        0.0296
     10  C16        5.8530   35.0180   55.5040 C.3     0  <0>0        0.0023
     11  C17        5.1620   34.4810   54.2480 C.3     0  <0>0        0.0001
     12  C18        5.1670   36.3110   55.9490 C.3     0  <0>0        0.0001
     13  C9         9.1340   35.9540   59.0670 C.ar    0  <0>0        0.0090
     14  C14        8.7590   36.8670   60.0530 C.ar    0  <0>0        0.0180
     15  C13        9.4130   36.8610   61.2870 C.ar    0  <0>0        0.0015
     16  C12       10.4320   35.9600   61.5190 C.ar    0  <0>0        0.0000
     17  C11       10.8020   35.0620   60.5350 C.ar    0  <0>0       -0.0002
     18  C10       10.1550   35.0600   59.3120 C.ar    0  <0>0       -0.0018
     19  C15        7.6710   37.8310   59.7950 C.2     0  <0>0        0.0778
     20  S1         6.0450   37.3870   60.0920 S.2     0  <0>0       -0.0352
     21  N1         7.9590   39.0620   59.3260 N.am    0  <0>0       -0.3517
     22  H19        8.8800   39.3130   59.1580 H       0  <0>0        0.1428
     23  H20        7.2440   39.6960   59.1570 H       0  <0>0        0.1428
@<TRIPOS>BOND
     1    11    10    1
     2    10    12    1
     3    10     4    1
     4     5     4    1
     5     5     6    1
     6     4     3    1
     7     6     7    1
     8     2     1    1
     9     2     3    1
    10     1    13    1
    11     3     9    1
    12     8     7    1
    13     7     9    1
    14    13    18   ar
    15    13    14   ar
    16    23    21    1
    17    22    21    1
    18    18    17   ar
    19    21    19    1
    20    19    14    1
    21    19    20    2
    22    14    15   ar
    23    17    16   ar
    24    15    16   ar
