@<TRIPOS>MOLECULE
ZINC21728730_replica-1.pdb
 30 34 0 0 0
SMALL
GASTEIGER

@<TRIPOS>ATOM
      1  C7         8.9610   35.4600   58.7940 C.ar    0  <0>0        0.1003
      2  C8         8.4670   34.1550   58.7430 C.ar    0  <0>0        0.0331
      3  C9         9.1490   33.4080   59.6620 C.ar    0  <0>0        0.1333
      4  N1        10.0350   34.2210   60.2780 N.ar    0  <0>0       -0.2163
      5  N2         9.9050   35.5030   59.7180 N.ar    0  <0>0       -0.1642
      6  N3         8.8950   32.0500   59.8450 N.am    0  <0>0       -0.2695
      7  C16        8.0960   31.4270   58.9510 C.2     0  <0>0        0.2278
      8  O1         7.7110   30.3020   59.1920 O.2     0  <0>0       -0.2747
      9  C17        7.6720   32.0840   57.6690 C.3     0  <0>0        0.0943
     10  C18        7.3770   33.5720   57.8790 C.3     0  <0>0        0.0579
     11  H12        9.3400   31.5160   60.6980 H       0  <0>0        0.1562
     12  C19        6.0450   33.7360   58.5630 C.ar    0  <0>0       -0.0177
     13  C24        5.9580   34.4510   59.7440 C.ar    0  <0>0       -0.0016
     14  C23        4.7350   34.6030   60.3710 C.ar    0  <0>0        0.0293
     15  C22        3.5990   34.0390   59.8170 C.ar    0  <0>0        0.1401
     16  C21        3.6880   33.3220   58.6360 C.ar    0  <0>0        0.0293
     17  F1         2.4040   34.1850   60.4300 F       0  <0>0       -0.2042
     18  C20        4.9100   33.1770   58.0070 C.ar    0  <0>0       -0.0016
     19  C4         8.5120   36.5980   57.9550 C.ar    0  <0>0        0.0191
     20  C3         8.2080   36.3960   56.6100 C.ar    0  <0>0        0.0015
     21  C2         7.7910   37.4580   55.8330 C.ar    0  <0>0        0.0000
     22  C1         7.6730   38.7200   56.3870 C.ar    0  <0>0        0.0000
     23  C6         7.9730   38.9260   57.7210 C.ar    0  <0>0        0.0000
     24  C5         8.3870   37.8700   58.5090 C.ar    0  <0>0        0.0015
     25  C10       10.9260   33.8530   61.2950 C.ar    0  <0>0        0.0842
     26  C15       12.0300   34.6460   61.5730 C.ar    0  <0>0        0.0192
     27  C14       12.9060   34.2790   62.5760 C.ar    0  <0>0        0.0015
     28  C13       12.6840   33.1240   63.3030 C.ar    0  <0>0        0.0001
     29  C12       11.5840   32.3310   63.0270 C.ar    0  <0>0        0.0015
     30  C11       10.7010   32.6960   62.0290 C.ar    0  <0>0        0.0192
@<TRIPOS>BOND
     1    21    22   ar
     2    21    20   ar
     3    22    23   ar
     4    20    19   ar
     5     9    10    1
     6     9     7    1
     7    23    24   ar
     8    10    12    1
     9    10     2    1
    10    19    24   ar
    11    19     1    1
    12    18    12   ar
    13    18    16   ar
    14    12    13   ar
    15    16    15   ar
    16     2     1   ar
    17     2     3   ar
    18     1     5   ar
    19     7     8    2
    20     7     6   am
    21     3     6    1
    22     3     4   ar
    23     5     4   ar
    24    13    14   ar
    25    15    14   ar
    26    15    17    1
    27     6    11    1
    28     4    25    1
    29    25    26   ar
    30    25    30   ar
    31    26    27   ar
    32    30    29   ar
    33    27    28   ar
    34    29    28   ar
