@<TRIPOS>MOLECULE
ZINC32950767_replica-1.pdb
 32 35 0 0 0
SMALL
GASTEIGER

@<TRIPOS>ATOM
      1  N3         5.5190   36.4510   58.5460 N.pl3   0  <0>0       -0.2590
      2  C12        6.5060   36.5840   57.5880 C.2     0  <0>0        0.0794
      3  C13        7.6720   37.3310   57.5030 C.2     0  <0>0       -0.0040
      4  C14        8.4650   37.2360   56.3790 C.3     0  <0>0        0.0535
      5  C15        8.1040   36.3990   55.3320 C.2     0  <0>0       -0.0187
      6  C16        6.9650   35.6500   55.4000 C.2     0  <0>0        0.0291
      7  C17        6.1420   35.7330   56.5290 C.2     0  <0>0        0.1460
      8  N4         4.9740   35.1410   56.8750 N.2     0  <0>0       -0.3854
      9  C18        4.6020   35.5590   58.0600 C.2     0  <0>0        0.1870
     10  C11        5.4620   37.1410   59.8370 C.3     0  <0>0        0.1192
     11  C10        6.0830   36.2530   60.9170 C.3     0  <0>0        0.1127
     12  N2         7.4500   36.7010   61.1910 N.am    0  <0>0       -0.2872
     13  C9         8.4860   35.8600   61.0030 C.2     0  <0>0        0.3008
     14  N1         9.7440   36.2720   61.2560 N.am    0  <0>0       -0.2886
     15  O1         8.2860   34.7280   60.6040 O.2     0  <0>0       -0.2528
     16  H10        9.9250   37.2960   61.6160 H       0  <0>0        0.1510
     17  H11        7.6310   37.7250   61.5520 H       0  <0>0        0.1510
     18  C8        10.8700   35.3570   61.0510 C.3     0  <0>0        0.0956
     19  C7        11.8600   35.5020   62.2090 C.3     0  <0>0        0.0476
     20  C4        12.3820   34.1410   62.5950 C.ar    0  <0>0       -0.0205
     21  C3        13.7120   33.9820   62.9330 C.ar    0  <0>0       -0.0042
     22  C2        14.1900   32.7340   63.2870 C.ar    0  <0>0       -0.0003
     23  C1        13.3380   31.6460   63.3030 C.ar    0  <0>0       -0.0000
     24  C6        12.0070   31.8050   62.9650 C.ar    0  <0>0       -0.0003
     25  C5        11.5280   33.0540   62.6150 C.ar    0  <0>0       -0.0042
     26  C19        3.3750   35.1320   58.7660 C.ar    0  <0>0        0.0444
     27  C24        2.1670   35.7910   58.5330 C.ar    0  <0>0        0.0062
     28  C23        1.0260   35.3880   59.1950 C.ar    0  <0>0        0.0298
     29  C22        1.0780   34.3310   60.0900 C.ar    0  <0>0        0.1401
     30  C21        2.2740   33.6730   60.3240 C.ar    0  <0>0        0.0298
     31  F1        -0.0430   33.9410   60.7350 F       0  <0>0       -0.2042
     32  C20        3.4200   34.0650   59.6650 C.ar    0  <0>0        0.0062
@<TRIPOS>BOND
     1     5     6    2
     2     5     4    1
     3     6     7    1
     4     4     3    1
     5     7     8    2
     6     7     2    1
     7     8     9    2
     8     3     2    2
     9     2     1    1
    10     9     1    1
    11     9    26    1
    12    27    26   ar
    13    27    28   ar
    14     1    10    1
    15    26    32   ar
    16    28    29   ar
    17    32    30   ar
    18    10    11    1
    19    29    30   ar
    20    29    31    1
    21    15    13    2
    22    11    12    1
    23    13    12   am
    24    13    14   am
    25    18    14    1
    26    18    19    1
    27    12    17    1
    28    14    16    1
    29    19    20    1
    30    20    25   ar
    31    20    21   ar
    32    25    24   ar
    33    21    22   ar
    34    24    23   ar
    35    22    23   ar
