@<TRIPOS>MOLECULE
ZINC27635358_replica-1.pdb
 26 27 0 0 0
SMALL
GASTEIGER

@<TRIPOS>ATOM
      1  N1         0.8530   30.6030   55.1910 N.am    0  <0>0       -0.3005
      2  C6         0.8460   31.4790   56.2150 C.2     0  <0>0        0.2460
      3  O1         0.2050   31.2340   57.2200 O.2     0  <0>0       -0.2701
      4  H11        1.4310   30.8240   54.2820 H       0  <0>0        0.1497
      5  C5         0.0910   29.3550   55.2890 C.3     0  <0>0        0.0940
      6  C4        -1.0890   29.4000   54.3150 C.3     0  <0>0        0.0419
      7  C2        -2.4000   29.3200   55.0980 C.3     0  <0>0        0.0057
      8  C1        -2.1430   28.6720   56.4600 C.3     0  <0>0        0.0004
      9  C3        -2.9610   30.7300   55.3020 C.3     0  <0>0        0.0004
     10  C15       -1.0000   28.2340   53.3640 C.ar    0  <0>0       -0.0208
     11  C20       -0.2930   27.1020   53.7230 C.ar    0  <0>0       -0.0042
     12  C19       -0.2110   26.0330   52.8510 C.ar    0  <0>0       -0.0003
     13  C18       -0.8350   26.0960   51.6190 C.ar    0  <0>0       -0.0000
     14  C17       -1.5420   27.2300   51.2600 C.ar    0  <0>0       -0.0003
     15  C16       -1.6280   28.2960   52.1340 C.ar    0  <0>0       -0.0042
     16  C7         1.6070   32.7250   56.1180 C.2     0  <0>0        0.0577
     17  C8         2.9530   32.6990   56.1820 C.2     0  <0>0        0.0047
     18  C9         3.7200   33.9530   56.0840 C.ar    0  <0>0        0.0018
     19  C14        5.1170   33.9200   56.0380 C.ar    0  <0>0        0.0241
     20  C13        5.8270   35.0990   55.9450 C.ar    0  <0>0        0.1429
     21  C12        5.1610   36.3110   55.8970 C.ar    0  <0>0        0.0241
     22  C11        3.7780   36.3510   55.9470 C.ar    0  <0>0        0.0017
     23  C10        3.0540   35.1820   56.0350 C.ar    0  <0>0        0.0001
     24  N2         7.3060   35.0670   55.8960 N.pl3   0  <0>0        0.0577
     25  O2         7.9180   35.9810   55.3730 O.2     0  <0>0       -0.1261
     26  O3         7.9110   34.1270   56.3800 O.2     0  <0>0       -0.1261
@<TRIPOS>BOND
     1    14    13   ar
     2    14    15   ar
     3    13    12   ar
     4    15    10   ar
     5    12    11   ar
     6    10    11   ar
     7    10     6    1
     8     4     1    1
     9     6     7    1
    10     6     5    1
    11     7     9    1
    12     7     8    1
    13     1     5    1
    14     1     2   am
    15    25    24    2
    16    24    20    1
    17    24    26    2
    18    21    20   ar
    19    21    22   ar
    20    20    19   ar
    21    22    23   ar
    22    23    18   ar
    23    19    18   ar
    24    18    17    1
    25    16    17    2
    26    16     2    1
    27     2     3    2
