@<TRIPOS>MOLECULE
ZINC07719029_replica-1.pdb
 30 32 0 0 0
SMALL
GASTEIGER

@<TRIPOS>ATOM
      1  N3         6.9070   36.6100   58.9770 N.4     0  <0>0        0.3919
      2  H31        6.3530   37.4660   58.8510 H       0  <0>0       -0.0834
      3  H32        6.9040   36.3440   59.9690 H       0  <0>0       -0.0834
      4  C11        8.2950   36.8590   58.5440 C.3     0  <0>0       -0.0379
      5  C8         9.2490   36.2930   59.5640 C.ar    0  <0>0       -0.0421
      6  C7         9.8660   35.0780   59.3330 C.ar    0  <0>0       -0.0066
      7  C6        10.7450   34.5600   60.2660 C.ar    0  <0>0       -0.0047
      8  C5        10.9990   35.2540   61.4350 C.ar    0  <0>0       -0.0225
      9  C10       10.3820   36.4690   61.6650 C.ar    0  <0>0       -0.0047
     10  C9         9.5060   36.9880   60.7310 C.ar    0  <0>0       -0.0066
     11  C3        11.9530   34.6870   62.4550 C.3     0  <0>0        0.0223
     12  C4        12.2540   35.7480   63.5160 C.3     0  <0>0        0.0047
     13  C2        13.2530   34.2750   61.7640 C.3     0  <0>0        0.0044
     14  C1        14.2540   33.7830   62.8110 C.3     0  <0>0        0.0003
     15  C12        8.5180   38.3670   58.4180 C.3     0  <0>0       -0.0154
     16  C13        8.7380   38.7300   56.9490 C.3     0  <0>0       -0.0018
     17  C14        7.2910   39.1110   58.9490 C.3     0  <0>0       -0.0018
     18  C15        6.3090   35.5230   58.1800 C.3     0  <0>0       -0.0245
     19  C16        5.2720   34.8130   59.0110 C.2     0  <0>0        0.0762
     20  N2         3.9880   35.0920   58.8470 N.2     0  <0>0       -0.3965
     21  C23        3.0480   34.4810   59.5670 C.2     0  <0>0        0.1919
     22  N1         3.3830   33.5410   60.5030 N.am    0  <0>0       -0.2111
     23  C22        1.6960   34.8070   59.3610 C.2     0  <0>0        0.0481
     24  C18        4.6790   33.2240   60.7040 C.2     0  <0>0        0.2417
     25  C19        2.4150   32.9210   61.2330 C.2     0  <0>0        0.0701
     26  C17        5.6610   33.8670   59.9410 C.3     0  <0>0        0.1380
     27  O1         4.9910   32.3870   61.5350 O.2     0  <0>0       -0.2737
     28  C20        1.1100   33.2210   61.0490 C.2     0  <0>0       -0.0064
     29  C21        0.7360   34.1800   60.0980 C.2     0  <0>0        0.0010
     30  C24        0.0550   32.5230   61.8680 C.3     0  <0>0        0.0324
@<TRIPOS>BOND
     1    16    15    1
     2    18     1    1
     3    18    19    1
     4    15     4    1
     5    15    17    1
     6     4     1    1
     7     4     5    1
     8    20    19    2
     9    20    21    2
    10     2     1    1
    11     1     3    1
    12    19    26    1
    13     6     5   ar
    14     6     7   ar
    15    23    21    1
    16    23    29    2
    17     5    10   ar
    18    21    22    1
    19    26    24    1
    20    29    28    1
    21     7     8   ar
    22    22    24   am
    23    22    25    1
    24    24    27    2
    25    10     9   ar
    26    28    25    2
    27    28    30    1
    28     8     9   ar
    29     8    11    1
    30    13    11    1
    31    13    14    1
    32    11    12    1
