@<TRIPOS>MOLECULE
ZINC40315898_replica-1.pdb
 31 33 0 0 0
SMALL
GASTEIGER

@<TRIPOS>ATOM
      1  N1        -0.9100   30.3670   55.1580 N.4     0  <0>0        0.3962
      2  H32       -0.3950   29.5210   55.3470 H       0  <0>0       -0.0785
      3  C8        -1.5560   30.2640   53.8420 C.3     0  <0>0       -0.0492
      4  C5        -1.2740   28.9080   53.2500 C.ar    0  <0>0       -0.0432
      5  C4        -0.5360   27.9810   53.9630 C.ar    0  <0>0       -0.0066
      6  C3        -0.2790   26.7360   53.4210 C.ar    0  <0>0       -0.0047
      7  C2        -0.7600   26.4170   52.1650 C.ar    0  <0>0       -0.0219
      8  C1        -0.4790   25.0590   51.5730 C.3     0  <0>0        0.0310
      9  C7        -1.4940   27.3440   51.4500 C.ar    0  <0>0       -0.0047
     10  C6        -1.7550   28.5880   51.9940 C.ar    0  <0>0       -0.0066
     11  C9        -1.9360   30.5580   56.1930 C.3     0  <0>0       -0.0104
     12  C10       -2.0210   29.3210   57.0490 C.ar    0  <0>0        0.1022
     13  O1        -1.1630   28.9810   58.0250 O.2     0  <0>0       -0.4568
     14  C13       -1.5500   27.8190   58.5770 C.ar    0  <0>0        0.1790
     15  C12       -2.6600   27.3990   57.9460 C.ar    0  <0>0        0.0434
     16  C11       -2.9650   28.3660   56.9610 C.ar    0  <0>0        0.0340
     17  C14        0.0100   31.5120   55.1630 C.3     0  <0>0       -0.0425
     18  C15        0.5580   31.7190   56.5770 C.3     0  <0>0        0.1335
     19  C16        1.3630   33.0200   56.6270 C.3     0  <0>0        0.2321
     20  O2         2.4850   32.9210   55.7500 O.3     0  <0>0       -0.4729
     21  C17        3.4600   33.8570   55.8860 C.ar    0  <0>0        0.1387
     22  C22        4.5350   33.8750   55.0090 C.ar    0  <0>0        0.0366
     23  C21        5.5210   34.8330   55.1470 C.ar    0  <0>0       -0.0012
     24  C20        5.4440   35.7650   56.1650 C.ar    0  <0>0       -0.0223
     25  C19        4.3770   35.7460   57.0440 C.ar    0  <0>0       -0.0012
     26  C18        3.3850   34.7950   56.9070 C.ar    0  <0>0        0.0366
     27  C23        6.5250   36.8050   56.3160 C.3     0  <0>0        0.0224
     28  C24        7.2720   36.5760   57.6320 C.3     0  <0>0        0.0047
     29  C25        7.5060   36.6950   55.1480 C.3     0  <0>0        0.0047
     30  O3         1.4050   30.6220   56.9240 O.3     0  <0>0       -0.3828
     31  H31        1.2200   29.8110   56.4330 H       0  <0>0        0.2104
@<TRIPOS>BOND
     1     9    10   ar
     2     9     7   ar
     3     8     7    1
     4    10     4   ar
     5     7     6   ar
     6     4     3    1
     7     4     5   ar
     8     6     5   ar
     9     3     1    1
    10    22    23   ar
    11    22    21   ar
    12    23    24   ar
    13    29    27    1
    14     1    17    1
    15     1     2    1
    16     1    11    1
    17    17    18    1
    18    20    21    1
    19    20    19    1
    20    21    26   ar
    21    24    27    1
    22    24    25   ar
    23    11    12    1
    24    27    28    1
    25    31    30    1
    26    18    19    1
    27    18    30    1
    28    26    25   ar
    29    16    12   ar
    30    16    15   ar
    31    12    13   ar
    32    15    14   ar
    33    13    14   ar
