@<TRIPOS>MOLECULE
ZINC64567916_replica-1.pdb
 28 31 0 0 0
SMALL
GASTEIGER

@<TRIPOS>ATOM
      1  C1         7.1960   37.9200   55.6470 C.3     0  <0>0        0.0540
      2  C2         7.4400   37.1070   56.8920 C.ar    0  <0>0        0.0813
      3  C3         6.5390   36.1380   57.4410 C.ar    0  <0>0        0.0397
      4  C4         5.2770   35.5860   57.1690 C.ar    0  <0>0        0.0143
      5  C5         4.7630   34.6340   57.9980 C.ar    0  <0>0        0.0842
      6  S1         6.0420   34.4570   59.2300 S.2     0  <0>0       -0.0634
      7  C6         7.1880   35.6480   58.5840 C.ar    0  <0>0        0.1134
      8  N1         8.3770   36.2730   58.7050 N.ar    0  <0>0       -0.2239
      9  N2         8.5030   37.1690   57.6360 N.ar    0  <0>0       -0.1690
     10  C13        3.4800   33.9320   57.9030 C.2     0  <0>0        0.2521
     11  O1         3.2740   33.1630   56.9810 O.2     0  <0>0       -0.2696
     12  N3         2.5280   34.1370   58.8340 N.am    0  <0>0       -0.2983
     13  H10        2.6920   34.7500   59.5690 H       0  <0>0        0.1500
     14  C14        1.2460   33.4350   58.7390 C.3     0  <0>0        0.0944
     15  C15        0.2370   34.3150   57.9980 C.3     0  <0>0        0.0262
     16  C16        0.7320   33.1380   60.1240 C.ar    0  <0>0       -0.0045
     17  C21        0.8330   31.8590   60.6380 C.ar    0  <0>0       -0.0027
     18  C20        0.3640   31.5870   61.9110 C.ar    0  <0>0       -0.0003
     19  C19       -0.2120   32.5920   62.6650 C.ar    0  <0>0       -0.0000
     20  C18       -0.3160   33.8700   62.1490 C.ar    0  <0>0       -0.0003
     21  C17        0.1560   34.1430   60.8780 C.ar    0  <0>0       -0.0027
     22  C7         9.3200   36.0610   59.7200 C.ar    0  <0>0        0.0835
     23  C12        9.4720   36.9980   60.7340 C.ar    0  <0>0        0.0215
     24  C11       10.3980   36.7850   61.7360 C.ar    0  <0>0        0.0312
     25  C10       11.1830   35.6440   61.7230 C.ar    0  <0>0        0.1402
     26  C9        11.0360   34.7120   60.7100 C.ar    0  <0>0        0.0312
     27  F1        12.0930   35.4400   62.7010 F       0  <0>0       -0.2042
     28  C8        10.1080   34.9180   59.7100 C.ar    0  <0>0        0.0215
@<TRIPOS>BOND
     1     1     2    1
     2     2     3   ar
     3     2     9   ar
     4    11    10    2
     5     4     3   ar
     6     4     5   ar
     7     3     7   ar
     8     9     8   ar
     9    10     5    1
    10    10    12   am
    11    15    14    1
    12     5     6   ar
    13     7     8   ar
    14     7     6   ar
    15     8    22    1
    16    14    12    1
    17    14    16    1
    18    12    13    1
    19    28    22   ar
    20    28    26   ar
    21    22    23   ar
    22    16    17   ar
    23    16    21   ar
    24    17    18   ar
    25    26    25   ar
    26    23    24   ar
    27    21    20   ar
    28    25    24   ar
    29    25    27    1
    30    18    19   ar
    31    20    19   ar
