@<TRIPOS>MOLECULE
ZINC37123469_replica-1.pdb
 21 22 0 0 0
SMALL
GASTEIGER

@<TRIPOS>ATOM
      1  C8        -1.8580   30.0560   56.2300 C.ar    0  <0>0        0.0503
      2  C9        -2.8000   29.0480   56.3700 C.ar    0  <0>0        0.0148
      3  C10       -2.7070   28.1530   57.4200 C.ar    0  <0>0        0.0013
      4  C11       -1.6750   28.2600   58.3340 C.ar    0  <0>0        0.0006
      5  C12       -0.7310   29.2620   58.2040 C.ar    0  <0>0        0.0074
      6  C13       -0.8140   30.1600   57.1500 C.ar    0  <0>0        0.0383
      7  N1        -1.9520   30.9630   55.1680 N.pl3   0  <0>0       -0.3337
      8  H16       -2.2840   31.8600   55.3250 H       0  <0>0        0.1468
      9  C2        -1.5490   30.5550   53.8200 C.3     0  <0>0        0.0691
     10  C1        -2.7940   30.2230   52.9940 C.3     0  <0>0        0.0212
     11  C3        -0.6500   29.3190   53.9080 C.3     0  <0>0        0.0195
     12  C4        -1.2110   28.2160   53.0080 C.3     0  <0>0        0.0017
     13  C5        -0.1860   27.0880   52.8860 C.3     0  <0>0        0.0001
     14  C6         0.1610   26.5600   54.2790 C.3     0  <0>0        0.0000
     15  C7        -0.7730   25.9530   52.0430 C.3     0  <0>0        0.0000
     16  S1         0.3920   31.4330   56.9770 S.3     0  <0>0       -0.1133
     17  C14        0.0280   32.5710   58.3430 C.3     0  <0>0        0.0520
     18  C18        0.9720   32.2920   59.5260 C.3     0  <0>0        0.0111
     19  C17        1.7740   33.5880   59.7630 C.3     0  <0>0        0.0009
     20  C16        0.8830   34.7030   59.1640 C.3     0  <0>0        0.0009
     21  C15        0.2910   34.0260   57.9030 C.3     0  <0>0        0.0111
@<TRIPOS>BOND
     1    15    13    1
     2    13    12    1
     3    13    14    1
     4    10     9    1
     5    12    11    1
     6     9    11    1
     7     9     7    1
     8     7     8    1
     9     7     1    1
    10     1     2   ar
    11     1     6   ar
    12     2     3   ar
    13    16     6    1
    14    16    17    1
    15     6     5   ar
    16     3     4   ar
    17    21    17    1
    18    21    20    1
    19     5     4   ar
    20    17    18    1
    21    20    19    1
    22    18    19    1
