@<TRIPOS>MOLECULE
ZINC03267477_replica-1.pdb
 25 26 0 0 0
SMALL
GASTEIGER

@<TRIPOS>ATOM
      1  C8         5.1070   34.8870   57.8950 C.2     0  <0>0        0.1542
      2  S1         3.8360   34.8080   56.7500 S.2     0  <0>0       -0.0169
      3  N2         5.8060   33.7760   58.2030 N.am    0  <0>0       -0.2175
      4  H9         5.5890   32.9330   57.7770 H       0  <0>0        0.1763
      5  N3         6.8460   33.8410   59.1400 N.2     0  <0>0       -0.1784
      6  C9         8.0800   33.7870   58.7440 C.2     0  <0>0        0.1175
      7  C10        9.1750   33.8560   59.7300 C.ar    0  <0>0        0.0207
      8  C15        9.3690   32.8120   60.6370 C.ar    0  <0>0        0.0013
      9  C14       10.3950   32.8830   61.5560 C.ar    0  <0>0       -0.0042
     10  C13       11.2320   33.9850   61.5800 C.ar    0  <0>0       -0.0228
     11  C12       11.0460   35.0220   60.6840 C.ar    0  <0>0       -0.0042
     12  C11       10.0260   34.9630   59.7570 C.ar    0  <0>0        0.0013
     13  C16       12.3530   34.0550   62.5860 C.3     0  <0>0        0.0189
     14  C17       12.1240   35.2420   63.5230 C.3     0  <0>0        0.0044
     15  C18       12.3860   32.7600   63.4000 C.3     0  <0>0        0.0044
     16  C19       13.6840   34.2320   61.8540 C.3     0  <0>0        0.0044
     17  N1         5.4080   36.0590   58.4860 N.am    0  <0>0       -0.2949
     18  H8         4.8750   36.3790   59.2300 H       0  <0>0        0.1539
     19  C7         6.4900   36.8170   58.0250 C.ar    0  <0>0        0.0455
     20  C2         7.3290   37.4530   58.9310 C.ar    0  <0>0       -0.0084
     21  C1         7.0770   37.3280   60.4110 C.3     0  <0>0        0.0323
     22  C3         8.3980   38.2000   58.4730 C.ar    0  <0>0       -0.0030
     23  C4         8.6310   38.3140   57.1150 C.ar    0  <0>0       -0.0002
     24  C5         7.7970   37.6820   56.2110 C.ar    0  <0>0        0.0013
     25  C6         6.7310   36.9290   56.6630 C.ar    0  <0>0        0.0143
@<TRIPOS>BOND
     1    24    25   ar
     2    24    23   ar
     3    25    19   ar
     4     2     1    2
     5    23    22   ar
     6     4     3    1
     7     1     3    1
     8     1    17    1
     9    19    17    1
    10    19    20   ar
    11     3     5    1
    12    22    20   ar
    13    17    18    1
    14     6     5    2
    15     6     7    1
    16    20    21    1
    17     7    12   ar
    18     7     8   ar
    19    12    11   ar
    20     8     9   ar
    21    11    10   ar
    22     9    10   ar
    23    10    13    1
    24    16    13    1
    25    13    15    1
    26    13    14    1
