@<TRIPOS>MOLECULE
ZINC37278644_replica-1.pdb
 22 23 0 0 0
SMALL
GASTEIGER

@<TRIPOS>ATOM
      1  N1        -0.2090   28.4220   56.0290 N.pl3   0  <0>0       -0.3309
      2  H14       -0.4320   29.3570   56.1610 H       0  <0>0        0.1471
      3  C4         0.2880   27.6210   57.1500 C.3     0  <0>0        0.0918
      4  C2         0.8000   28.5500   58.2530 C.3     0  <0>0        0.0221
      5  C1         2.2080   28.1180   58.6690 C.3     0  <0>0        0.0020
      6  C3         0.8400   29.9870   57.7320 C.3     0  <0>0        0.0020
      7  C5        -0.8290   26.7660   57.6910 C.ar    0  <0>0       -0.0046
      8  C10       -0.6290   25.4130   57.8910 C.ar    0  <0>0       -0.0027
      9  C9        -1.6520   24.6290   58.3920 C.ar    0  <0>0       -0.0003
     10  C8        -2.8780   25.1970   58.6830 C.ar    0  <0>0       -0.0000
     11  C7        -3.0800   26.5490   58.4770 C.ar    0  <0>0       -0.0003
     12  C6        -2.0560   27.3340   57.9810 C.ar    0  <0>0       -0.0027
     13  C11       -0.3610   27.8400   54.7690 C.ar    0  <0>0        0.0407
     14  C16       -1.1300   28.4710   53.7980 C.ar    0  <0>0       -0.0097
     15  C15       -1.2750   27.8940   52.5510 C.ar    0  <0>0       -0.0031
     16  C14       -0.6650   26.6850   52.2710 C.ar    0  <0>0       -0.0002
     17  C13        0.0950   26.0510   53.2380 C.ar    0  <0>0        0.0012
     18  C12        0.2490   26.6240   54.4840 C.ar    0  <0>0        0.0140
     19  C17       -1.8000   29.7850   54.1040 C.3     0  <0>0        0.0201
     20  C18       -2.6900   29.6290   55.3380 C.3     0  <0>0        0.0044
     21  C19       -0.7350   30.8500   54.3730 C.3     0  <0>0        0.0044
     22  C20       -2.6570   30.2100   52.9090 C.3     0  <0>0        0.0044
@<TRIPOS>BOND
     1    16    15   ar
     2    16    17   ar
     3    15    14   ar
     4    22    19    1
     5    17    18   ar
     6    14    19    1
     7    14    13   ar
     8    19    21    1
     9    19    20    1
    10    18    13   ar
    11    13     1    1
    12     1     2    1
    13     1     3    1
    14     3     7    1
    15     3     4    1
    16     7     8   ar
    17     7    12   ar
    18     6     4    1
    19     8     9   ar
    20    12    11   ar
    21     4     5    1
    22     9    10   ar
    23    11    10   ar
