@<TRIPOS>MOLECULE
ZINC41433401_replica-1.pdb
 31 35 0 0 0
SMALL
GASTEIGER

@<TRIPOS>ATOM
      1  C9        -1.9380   29.5150   55.8060 C.ar    0  <0>0        0.1418
      2  C10       -2.3390   28.4910   56.6600 C.ar    0  <0>0        0.0330
      3  C11       -1.8840   28.4520   57.9470 C.ar    0  <0>0       -0.0127
      4  C12       -1.0150   29.4410   58.4070 C.ar    0  <0>0        0.0728
      5  C13       -0.6050   30.4790   57.5540 C.ar    0  <0>0        0.1513
      6  C14       -1.0720   30.5020   56.2470 C.ar    0  <0>0        0.0744
      7  O2         0.2260   31.2980   58.2340 O.3     0  <0>0       -0.4501
      8  C15        0.4060   30.8740   59.5070 C.2     0  <0>0        0.1841
      9  C16        1.1850   31.4810   60.4470 C.2     0  <0>0        0.0423
     10  C26       -0.3550   29.6900   59.7010 C.2     0  <0>0        0.2324
     11  O3        -0.4430   29.0240   60.7180 O.2     0  <0>0       -0.2832
     12  C27       -2.3190   27.3420   58.8690 C.3     0  <0>0        0.0313
     13  C17        1.9170   32.7010   60.1100 C.ar    0  <0>0        0.0217
     14  C20        3.3320   32.9950   60.4070 C.ar    0  <0>0        0.0173
     15  C19        3.5780   34.2770   59.8910 C.ar    0  <0>0        0.0600
     16  C21        4.3520   32.2890   61.0400 C.ar    0  <0>0        0.0015
     17  N1         2.4030   34.7360   59.3300 N.ar    0  <0>0       -0.3240
     18  C24        4.8470   34.8310   60.0180 C.ar    0  <0>0        0.0172
     19  C18        1.4210   33.8090   59.4570 C.ar    0  <0>0        0.0760
     20  C25        2.2400   36.0410   58.6870 C.3     0  <0>0        0.1305
     21  C23        5.8460   34.1260   60.6550 C.ar    0  <0>0        0.0015
     22  C22        5.6020   32.8570   61.1610 C.ar    0  <0>0        0.0001
     23  O1        -2.3970   29.5440   54.5280 O.3     0  <0>0       -0.4705
     24  C8        -1.4180   29.6370   53.4890 C.3     0  <0>0        0.2320
     25  C5        -1.1730   28.2680   52.9080 C.ar    0  <0>0        0.0211
     26  C4        -1.7410   27.9210   51.6970 C.ar    0  <0>0       -0.0010
     27  C3        -1.5150   26.6660   51.1620 C.ar    0  <0>0       -0.0045
     28  C2        -0.7210   25.7590   51.8390 C.ar    0  <0>0       -0.0219
     29  C1        -0.4750   24.3910   51.2570 C.3     0  <0>0        0.0310
     30  C7        -0.1580   26.1060   53.0540 C.ar    0  <0>0       -0.0045
     31  C6        -0.3800   27.3620   53.5860 C.ar    0  <0>0       -0.0010
@<TRIPOS>BOND
     1    27    26   ar
     2    27    28   ar
     3    29    28    1
     4    26    25   ar
     5    28    30   ar
     6    25    24    1
     7    25    31   ar
     8    30    31   ar
     9    24    23    1
    10    23     1    1
    11     1     6   ar
    12     1     2   ar
    13     6     5   ar
    14     2     3   ar
    15     5     7    1
    16     5     4   ar
    17     3     4   ar
    18     3    12    1
    19     7     8    1
    20     4    10    1
    21    20    17    1
    22    17    19   ar
    23    17    15   ar
    24    19    13   ar
    25     8    10    1
    26     8     9    2
    27    10    11    2
    28    15    18   ar
    29    15    14   ar
    30    18    21   ar
    31    13    14   ar
    32    13     9    1
    33    14    16   ar
    34    21    22   ar
    35    16    22   ar
