@<TRIPOS>MOLECULE
ZINC41388353_replica-1.pdb
 21 22 0 0 0
SMALL
GASTEIGER

@<TRIPOS>ATOM
      1  C9        11.2500   35.2470   62.1250 C.3     0  <0>0        0.0560
      2  C8        12.4400   34.4110   61.6490 C.3     0  <0>0        0.0329
      3  C7        12.5280   33.1490   62.4690 C.ar    0  <0>0       -0.0257
      4  C2        13.7270   32.7880   63.0540 C.ar    0  <0>0       -0.0258
      5  C1        14.9460   33.6560   62.8740 C.3     0  <0>0        0.0307
      6  C3        13.8060   31.6330   63.8110 C.ar    0  <0>0       -0.0046
      7  C4        12.6880   30.8370   63.9770 C.ar    0  <0>0       -0.0003
      8  C5        11.4910   31.1970   63.3860 C.ar    0  <0>0       -0.0003
      9  C6        11.4110   32.3510   62.6300 C.ar    0  <0>0       -0.0046
     10  C10       11.7600   36.4710   62.8870 C.3     0  <0>0        0.1418
     11  O1        12.1460   36.0830   64.2080 O.3     0  <0>0       -0.3816
     12  H13       11.4900   35.5400   64.6660 H       0  <0>0        0.2105
     13  C11       10.4440   35.6960   60.9340 C.ar    0  <0>0       -0.0198
     14  C16        9.8390   36.9390   60.9370 C.ar    0  <0>0       -0.0045
     15  C15        9.1040   37.3520   59.8420 C.ar    0  <0>0       -0.0046
     16  C14        8.9640   36.5180   58.7490 C.ar    0  <0>0       -0.0225
     17  C13        9.5630   35.2730   58.7480 C.ar    0  <0>0       -0.0046
     18  C12       10.3030   34.8620   59.8410 C.ar    0  <0>0       -0.0045
     19  C17        8.1580   36.9680   57.5570 C.3     0  <0>0        0.0224
     20  C18        8.6450   38.3450   57.1020 C.3     0  <0>0        0.0047
     21  C19        8.3310   35.9640   56.4160 C.3     0  <0>0        0.0047
@<TRIPOS>BOND
     1    21    19    1
     2    20    19    1
     3    19    16    1
     4    17    16   ar
     5    17    18   ar
     6    16    15   ar
     7    18    13   ar
     8    15    14   ar
     9    13    14   ar
    10    13     1    1
    11     2     1    1
    12     2     3    1
    13     1    10    1
    14     3     9   ar
    15     3     4   ar
    16     9     8   ar
    17     5     4    1
    18    10    11    1
    19     4     6   ar
    20     8     7   ar
    21     6     7   ar
    22    11    12    1
