@<TRIPOS>MOLECULE
ZINC19813857_replica-1.pdb
 35 38 0 0 0
SMALL
GASTEIGER

@<TRIPOS>ATOM
      1  C1         5.1240   35.3460   60.3450 C.3     0  <0>0        0.0319
      2  C2         4.6010   34.7730   59.0530 C.2     0  <0>0       -0.0063
      3  C3         3.5700   33.8280   59.0500 C.2     0  <0>0        0.1079
      4  C4         3.1100   33.3180   57.8210 C.2     0  <0>0        0.1863
      5  N1         3.6380   33.7170   56.6780 N.2     0  <0>0       -0.3861
      6  C5         4.6200   34.6140   56.6370 C.2     0  <0>0        0.1416
      7  C6         5.1310   35.1690   57.8310 C.2     0  <0>0        0.0232
      8  C7         6.1960   36.1160   57.4470 C.2     0  <0>0       -0.0188
      9  C22        6.2960   36.1040   56.0380 C.2     0  <0>0       -0.0133
     10  C23        5.3660   35.2240   55.5240 C.2     0  <0>0        0.0937
     11  C24        5.1630   34.9460   54.1340 C.1     0  <0>0        0.1027
     12  N2         5.0010   34.7260   53.0300 N.1     0  <0>0       -0.1908
     13  C25        7.2610   36.9280   55.2240 C.3     0  <0>0        0.0315
     14  C26        2.9880   33.3860   60.2820 C.1     0  <0>0        0.1040
     15  N4         2.5260   33.0350   61.2590 N.1     0  <0>0       -0.1907
     16  C8         6.9600   36.8780   58.3120 C.3     0  <0>0        0.0524
     17  C9         8.1580   36.3070   58.9250 C.ar    0  <0>0       -0.0176
     18  C14        8.6180   36.7920   60.1600 C.ar    0  <0>0       -0.0008
     19  C13        9.7370   36.2540   60.7280 C.ar    0  <0>0        0.0366
     20  C12       10.4220   35.2270   60.0860 C.ar    0  <0>0        0.1390
     21  C11        9.9720   34.7410   58.8620 C.ar    0  <0>0        0.0366
     22  C10        8.8510   35.2670   58.2860 C.ar    0  <0>0       -0.0008
     23  O1        11.5340   34.6970   60.6550 O.3     0  <0>0       -0.4706
     24  C15       11.6300   34.7650   62.0790 C.3     0  <0>0        0.2328
     25  C16       11.9220   33.3940   62.6290 C.ar    0  <0>0        0.0318
     26  C21       13.2300   33.0070   62.8630 C.ar    0  <0>0        0.0580
     27  C20       13.4980   31.7470   63.3680 C.ar    0  <0>0        0.0226
     28 Cl         14.5330   34.1030   62.5240 Cl      0  <0>0       -0.0824
     29  C19       12.4600   30.8750   63.6390 C.ar    0  <0>0        0.0585
     30  C18       11.1520   31.2630   63.4040 C.ar    0  <0>0        0.0112
     31 Cl         12.7950   29.2950   64.2730 Cl      0  <0>0       -0.0822
     32  C17       10.8840   32.5230   62.9040 C.ar    0  <0>0        0.0010
     33  N3         2.0890   32.3830   57.8100 N.pl3   0  <0>0       -0.3324
     34  H17        2.0060   31.6690   56.9760 H       0  <0>0        0.1447
     35  H18        1.3610   32.3530   58.6330 H       0  <0>0        0.1447
@<TRIPOS>BOND
     1    12    11    3
     2    11    10    1
     3    13     9    1
     4    10     9    2
     5    10     6    1
     6     9     8    1
     7     6     5    2
     8     6     7    1
     9     5     4    2
    10    34    33    1
    11     8     7    2
    12     8    16    1
    13    33     4    1
    14    33    35    1
    15     4     3    1
    16     7     2    1
    17    22    21   ar
    18    22    17   ar
    19    16    17    1
    20    21    20   ar
    21    17    18   ar
    22     3     2    2
    23     3    14    1
    24     2     1    1
    25    20    23    1
    26    20    19   ar
    27    18    19   ar
    28    14    15    3
    29    23    24    1
    30    24    25    1
    31    28    26    1
    32    25    26   ar
    33    25    32   ar
    34    26    27   ar
    35    32    30   ar
    36    27    29   ar
    37    30    29   ar
    38    29    31    1
