@<TRIPOS>MOLECULE
ZINC15024643_replica-1.pdb
 35 38 0 0 0
SMALL
GASTEIGER

@<TRIPOS>ATOM
      1  C13        6.1900   35.9280   60.1440 C.3     0  <0>0        0.0307
      2  C12        5.2510   36.2530   58.9800 C.3     0  <0>0        0.0048
      3  C11        4.9330   34.9690   58.2070 C.3     0  <0>0        0.0248
      4  C2         3.4350   34.6770   58.2510 C.3     0  <0>0        0.0022
      5  C1         3.1520   34.3780   59.7410 C.3     0  <0>0        0.0001
      6  C7         3.0750   33.4690   57.3880 C.3     0  <0>0        0.0002
      7  C3         2.6070   35.8900   57.8460 C.3     0  <0>0        0.0001
      8  C6         1.5810   33.1800   57.3250 C.3     0  <0>0        0.0000
      9  C8         3.6060   33.6990   55.9670 C.3     0  <0>0        0.0024
     10  C5         0.7710   34.4330   57.0020 C.3     0  <0>0        0.0000
     11  C27        1.2930   32.1510   56.2080 C.3     0  <0>0        0.0000
     12  C28        1.0550   32.5370   58.6130 C.3     0  <0>0        0.0000
     13  C4         1.1120   35.5720   57.9570 C.3     0  <0>0        0.0000
     14  C9         5.1260   33.8430   55.9790 C.3     0  <0>0        0.0269
     15  C10        5.5580   35.0290   56.8300 C.3     0  <0>0        0.0883
     16  C26        5.2560   36.3460   56.1200 C.3     0  <0>0        0.0293
     17  O4         6.9930   34.9480   56.9890 O.3     0  <0>0       -0.3867
     18  H37        7.2810   34.8140   57.9030 H       0  <0>0        0.2102
     19  C14        7.4030   36.8590   60.0960 C.3     0  <0>0        0.1279
     20  C15        7.2060   37.8960   58.9880 C.3     0  <0>0        0.0331
     21  C16        8.6640   36.0400   59.8090 C.3     0  <0>0        0.2263
     22  O1         8.3350   34.6620   59.5440 O.2     0  <0>0       -0.3786
     23  N1         9.3590   33.8640   60.1050 N.2     0  <0>0       -0.0874
     24  C18       10.0740   34.5000   60.9720 C.2     0  <0>0        0.1008
     25  C17        9.5450   35.9190   61.0740 C.3     0  <0>0        0.0979
     26  C19       11.2090   33.9440   61.7330 C.ar    0  <0>0        0.0170
     27  C24       11.1210   32.6660   62.2900 C.ar    0  <0>0        0.0044
     28  C23       12.1840   32.1480   62.9940 C.ar    0  <0>0        0.0369
     29  C22       13.3420   32.9000   63.1610 C.ar    0  <0>0        0.1387
     30  C21       13.4320   34.1730   62.6140 C.ar    0  <0>0        0.0369
     31  C20       12.3740   34.6970   61.9030 C.ar    0  <0>0        0.0044
     32  O2        14.3860   32.3870   63.8610 O.3     0  <0>0       -0.4714
     33  C25       15.3560   33.3140   64.3520 C.3     0  <0>0        0.2525
     34  O3         7.5440   37.5240   61.3520 O.3     0  <0>0       -0.3831
     35  H33        6.9940   38.3140   61.4420 H       0  <0>0        0.2104
@<TRIPOS>BOND
     1     9    14    1
     2     9     6    1
     3    14    15    1
     4    16    15    1
     5    11     8    1
     6    15    17    1
     7    15     3    1
     8    17    18    1
     9    10     8    1
    10    10    13    1
    11     8     6    1
    12     8    12    1
    13     6     4    1
    14     7    13    1
    15     7     4    1
    16     3     4    1
    17     3     2    1
    18     4     5    1
    19     2     1    1
    20    20    19    1
    21    22    21    1
    22    22    23    1
    23    21    19    1
    24    21    25    1
    25    19     1    1
    26    19    34    1
    27    23    24    2
    28    24    25    1
    29    24    26    1
    30    34    35    1
    31    26    31   ar
    32    26    27   ar
    33    31    30   ar
    34    27    28   ar
    35    30    29   ar
    36    28    29   ar
    37    29    32    1
    38    32    33    1
