@<TRIPOS>MOLECULE
ZINC66154670_replica-1.pdb
 22 23 0 0 0
SMALL
GASTEIGER

@<TRIPOS>ATOM
      1  C9        11.8840   35.7170   62.7540 C.3     0  <0>0        0.1351
      2  N1        12.5510   34.5940   62.0900 N.pl3   0  <0>0       -0.3299
      3  H10       13.0120   34.7340   61.2480 H       0  <0>0        0.1469
      4  C5        12.5250   33.3240   62.6700 C.ar    0  <0>0        0.0407
      5  C4        11.3280   32.6240   62.7580 C.ar    0  <0>0        0.0137
      6  C3        11.3050   31.3680   63.3320 C.ar    0  <0>0       -0.0030
      7  C2        12.4720   30.8060   63.8160 C.ar    0  <0>0       -0.0221
      8  C1        12.4430   29.4350   64.4410 C.3     0  <0>0        0.0310
      9  C7        13.6640   31.5020   63.7350 C.ar    0  <0>0       -0.0073
     10  C6        13.6940   32.7560   63.1580 C.ar    0  <0>0       -0.0090
     11  C8        14.9960   33.5120   63.0640 C.3     0  <0>0        0.0323
     12  C10       10.8360   36.3160   61.8120 C.3     0  <0>0        0.2265
     13  O1        10.7750   35.5400   60.6140 O.3     0  <0>0       -0.4736
     14  C11        9.8290   35.8870   59.7020 C.ar    0  <0>0        0.1381
     15  C16        9.5510   35.0460   58.6350 C.ar    0  <0>0        0.0335
     16  C15        8.5840   35.3980   57.7130 C.ar    0  <0>0       -0.0086
     17  C14        7.9030   36.5950   57.8450 C.ar    0  <0>0        0.0499
     18  C17        8.2770   34.4800   56.5570 C.3     0  <0>0        0.0320
     19  C13        8.1840   37.4380   58.9050 C.ar    0  <0>0       -0.0086
     20 Cl          6.6960   37.0390   56.6800 Cl      0  <0>0       -0.0829
     21  C12        9.1440   37.0870   59.8340 C.ar    0  <0>0        0.0335
     22  C18        7.4390   38.7410   59.0480 C.3     0  <0>0        0.0320
@<TRIPOS>BOND
     1    18    16    1
     2    20    17    1
     3    16    17   ar
     4    16    15   ar
     5    17    19   ar
     6    15    14   ar
     7    19    22    1
     8    19    21   ar
     9    14    21   ar
    10    14    13    1
    11    13    12    1
    12     3     2    1
    13    12     1    1
    14     2     4    1
    15     2     1    1
    16     4     5   ar
    17     4    10   ar
    18     5     6   ar
    19    11    10    1
    20    10     9   ar
    21     6     7   ar
    22     9     7   ar
    23     7     8    1
