@<TRIPOS>MOLECULE
ZINC45901646_replica-1.pdb
 26 28 0 0 0
SMALL
GASTEIGER

@<TRIPOS>ATOM
      1  C6        10.5600   34.7760   60.9000 C.2     0  <0>0        0.2502
      2  C7         9.8410   33.5850   61.1530 C.2     0  <0>0        0.2202
      3  N1        10.3990   32.6000   61.8330 N.2     0  <0>0       -0.3814
      4  C8        11.6520   32.7320   62.2840 C.ar    0  <0>0        0.1625
      5  C9        12.2700   31.6990   63.0090 C.ar    0  <0>0        0.0348
      6  C10       13.5460   31.8580   63.4570 C.ar    0  <0>0        0.0028
      7  C11       14.2540   33.0330   63.2080 C.ar    0  <0>0        0.0028
      8  C12       13.6900   34.0550   62.5100 C.ar    0  <0>0        0.0347
      9  C13       12.3720   33.9290   62.0280 C.ar    0  <0>0        0.1613
     10  N2        11.7990   34.9150   61.3370 N.2     0  <0>0       -0.3888
     11  N3         8.5460   33.4510   60.6860 N.pl3   0  <0>0       -0.2858
     12  H14        7.9090   34.1710   60.8090 H       0  <0>0        0.1547
     13  C14        8.1540   32.2750   60.0380 C.ar    0  <0>0        0.0503
     14  C19        7.4590   31.2950   60.7350 C.ar    0  <0>0        0.0170
     15  C18        7.0680   30.1370   60.0920 C.ar    0  <0>0        0.0309
     16  C17        7.3780   29.9470   58.7560 C.ar    0  <0>0        0.1402
     17  C16        8.0760   30.9210   58.0600 C.ar    0  <0>0        0.0309
     18  F1         7.0000   28.8110   58.1300 F       0  <0>0       -0.2042
     19  C15        8.4640   32.0820   58.6970 C.ar    0  <0>0        0.0170
     20  C5         9.9230   35.8730   60.1390 C.2     0  <0>0        0.3751
     21  O2         9.8700   36.9900   60.6120 O.2     0  <0>0       -0.2418
     22  O1         9.3990   35.6310   58.9210 O.3     0  <0>0       -0.4474
     23  C3         8.2710   36.4170   58.5320 C.3     0  <0>0        0.1694
     24  C4         7.0960   35.4940   58.2030 C.3     0  <0>0        0.0473
     25  C2         8.6280   37.2470   57.2980 C.3     0  <0>0        0.0436
     26  C1         8.4930   38.7350   57.6280 C.3     0  <0>0        0.0038
@<TRIPOS>BOND
     1    25    26    1
     2    25    23    1
     3    17    19   ar
     4    17    16   ar
     5    18    16    1
     6    24    23    1
     7    23    22    1
     8    19    13   ar
     9    16    15   ar
    10    22    20    1
    11    13    11    1
    12    13    14   ar
    13    15    14   ar
    14    20    21    2
    15    20     1    1
    16    11    12    1
    17    11     2    1
    18     1     2    1
    19     1    10    2
    20     2     3    2
    21    10     9    2
    22     3     4    2
    23     9     4   ar
    24     9     8   ar
    25     4     5   ar
    26     8     7   ar
    27     5     6   ar
    28     7     6   ar
