@<TRIPOS>MOLECULE
ZINC48139713_replica-1.pdb
 28 30 0 0 0
SMALL
GASTEIGER

@<TRIPOS>ATOM
      1  N1        -0.5310   30.4510   55.3840 N.am    0  <0>0       -0.2600
      2  C9        -1.0150   31.0540   54.1390 C.3     0  <0>0        0.1167
      3  C10        0.4230   31.0690   56.1060 C.2     0  <0>0        0.3079
      4  O1         0.8250   30.5680   57.1380 O.2     0  <0>0       -0.2522
      5  N2         0.9330   32.2430   55.6840 N.am    0  <0>0       -0.2681
      6  H11        0.6660   32.6070   54.8250 H       0  <0>0        0.1564
      7  C2        -1.0850   29.1740   55.8420 C.3     0  <0>0        0.1017
      8  C1        -2.6120   29.2680   55.8890 C.3     0  <0>0        0.0266
      9  C3        -0.6780   28.0790   54.8910 C.ar    0  <0>0        0.0255
     10  C8         0.1290   27.0450   55.3300 C.ar    0  <0>0        0.1378
     11  C7         0.4980   26.0350   54.4570 C.ar    0  <0>0        0.0317
     12  F1         0.5520   27.0170   56.6130 F       0  <0>0       -0.2044
     13  C6         0.0690   26.0670   53.1440 C.ar    0  <0>0        0.0319
     14  C5        -0.7340   27.1040   52.7020 C.ar    0  <0>0        0.1400
     15  C4        -1.1080   28.1110   53.5770 C.ar    0  <0>0        0.0292
     16  F2        -1.1540   27.1340   51.4190 F       0  <0>0       -0.2042
     17  C11        1.8500   32.9380   56.4860 C.ar    0  <0>0        0.0539
     18  C16        1.4090   33.9560   57.3210 C.ar    0  <0>0        0.0456
     19  C15        2.3120   34.6370   58.1150 C.ar    0  <0>0        0.1545
     20  C14        3.6630   34.3090   58.0700 C.ar    0  <0>0        0.0757
     21  F3         1.8830   35.6240   58.9320 F       0  <0>0       -0.2028
     22  C13        4.1020   33.2950   57.2300 C.ar    0  <0>0        0.0181
     23  C12        3.1980   32.6110   56.4410 C.ar    0  <0>0        0.0161
     24  N3         4.5790   35.0030   58.8710 N.pl3   0  <0>0       -0.3058
     25  C20        5.4100   36.1410   58.4390 C.3     0  <0>0        0.0909
     26  C19        5.7370   36.9090   59.7450 C.3     0  <0>0        0.0232
     27  C18        5.9230   35.7440   60.7520 C.3     0  <0>0        0.0232
     28  C17        4.8770   34.7120   60.2810 C.3     0  <0>0        0.0909
@<TRIPOS>BOND
     1    16    14    1
     2    14    13   ar
     3    14    15   ar
     4    13    11   ar
     5    15     9   ar
     6     2     1    1
     7    11    10   ar
     8     6     5    1
     9     9    10   ar
    10     9     7    1
    11    10    12    1
    12     1     7    1
    13     1     3   am
    14     5     3   am
    15     5    17    1
    16     7     8    1
    17     3     4    2
    18    23    17   ar
    19    23    22   ar
    20    17    18   ar
    21    22    20   ar
    22    18    19   ar
    23    20    19   ar
    24    20    24    1
    25    19    21    1
    26    25    24    1
    27    25    26    1
    28    24    28    1
    29    26    27    1
    30    28    27    1
