@<TRIPOS>MOLECULE
ZINC13257863_replica-1.pdb
 27 28 0 0 0
SMALL
GASTEIGER

@<TRIPOS>ATOM
      1  N1         7.7980   36.1210   58.1990 N.am    0  <0>0       -0.2982
      2  C10        8.5540   35.0280   58.4210 C.2     0  <0>0        0.2460
      3  O2         8.5100   34.0910   57.6450 O.2     0  <0>0       -0.2701
      4  H8         7.7800   36.8380   58.8530 H       0  <0>0        0.1500
      5  C7         7.0050   36.2280   56.9720 C.3     0  <0>0        0.1056
      6  C6         5.5400   36.1300   57.3100 C.ar    0  <0>0       -0.0038
      7  C1         5.1390   36.0680   58.6320 C.ar    0  <0>0       -0.0004
      8  C2         3.7950   35.9840   58.9430 C.ar    0  <0>0        0.0294
      9  C3         2.8510   35.9500   57.9310 C.ar    0  <0>0        0.1401
     10  C4         3.2540   36.0050   56.6070 C.ar    0  <0>0        0.0294
     11  F4         1.5370   35.8610   58.2340 F       0  <0>0       -0.2042
     12  C5         4.5990   36.0960   56.2990 C.ar    0  <0>0       -0.0004
     13  C8         7.2850   37.5730   56.3000 C.3     0  <0>0        0.1381
     14  C9         8.0160   38.4730   57.2640 C.2     0  <0>0        0.3669
     15  O1         9.1920   38.7030   57.1030 O.co2   0  <0>0       -0.2456
     16  O3         7.3610   39.0190   58.3000 O.co2   0  <0>0       -0.2456
     17  C11        9.4350   34.9670   59.6020 C.ar    0  <0>0        0.0534
     18  C16        9.9720   36.1420   60.1370 C.ar    0  <0>0        0.0050
     19  C15       10.7900   36.0820   61.2350 C.ar    0  <0>0        0.0065
     20  C14       11.0860   34.8520   61.8180 C.ar    0  <0>0        0.0328
     21  C13       10.5530   33.6800   61.2870 C.ar    0  <0>0        0.0065
     22  C12        9.7290   33.7340   60.1930 C.ar    0  <0>0        0.0050
     23  S1        12.1380   34.7790   63.2300 S.3     0  <0>0       -0.0144
     24  C17       13.5580   33.8000   62.6690 C.3     0  <0>0        0.4477
     25  F1        14.6430   34.0190   63.5250 F       0  <0>0       -0.1600
     26  F2        13.2230   32.4410   62.6810 F       0  <0>0       -0.1600
     27  F3        13.9050   34.1820   61.3690 F       0  <0>0       -0.1600
@<TRIPOS>BOND
     1    12    10   ar
     2    12     6   ar
     3    13     5    1
     4    13    14    1
     5    10     9   ar
     6     5     6    1
     7     5     1    1
     8    15    14   ar
     9    14    16   ar
    10     6     7   ar
    11     3     2    2
    12     9    11    1
    13     9     8   ar
    14     1     2   am
    15     1     4    1
    16     2    17    1
    17     7     8   ar
    18    17    18   ar
    19    17    22   ar
    20    18    19   ar
    21    22    21   ar
    22    19    20   ar
    23    21    20   ar
    24    27    24    1
    25    20    23    1
    26    24    26    1
    27    24    23    1
    28    24    25    1
