@<TRIPOS>MOLECULE
ZINC13311117_replica-1.pdb
 24 25 0 0 0
SMALL
GASTEIGER

@<TRIPOS>ATOM
      1  S1         9.1020   34.2960   59.9620 S.O2    0  <0>0        0.0599
      2  O1         9.6460   34.8150   58.7560 O.2     0  <0>0       -0.1530
      3  O2         7.9400   34.8420   60.5710 O.2     0  <0>0       -0.1530
      4  C7        10.3840   34.3720   61.1680 C.ar    0  <0>0        0.1182
      5  C2        10.8490   35.5990   61.6030 C.ar    0  <0>0       -0.0032
      6  C1        10.2580   36.8680   61.0440 C.3     0  <0>0        0.0324
      7  C3        11.8570   35.6680   62.5500 C.ar    0  <0>0       -0.0027
      8  C4        12.4020   34.5120   63.0670 C.ar    0  <0>0        0.0063
      9  C5        11.9360   33.2700   62.6320 C.ar    0  <0>0        0.0811
     10  C6        10.9170   33.2070   61.6800 C.ar    0  <0>0        0.0262
     11  C15       12.5160   32.0260   63.1810 C.2     0  <0>0        0.3878
     12  O3        11.7880   31.1130   63.5150 O.co2   0  <0>0       -0.2406
     13  O4        13.8510   31.9060   63.3100 O.co2   0  <0>0       -0.2406
     14  N1         8.7830   32.6950   59.6860 N.3     0  <0>0       -0.1785
     15  H7         8.8150   32.0600   60.4190 H       0  <0>0        0.1488
     16  C8         8.4540   32.2360   58.3330 C.3     0  <0>0        0.1031
     17  C9         6.9920   32.5630   58.0260 C.3     0  <0>0        0.0767
     18  S2         6.9150   33.8620   56.7610 S.3     0  <0>0       -0.1334
     19  C10        6.0560   35.2290   57.5870 C.3     0  <0>0        0.0903
     20  C11        6.9200   36.4640   57.5450 C.ar    0  <0>0        0.0182
     21  S3         8.0210   37.0210   56.2560 S.2     0  <0>0       -0.0899
     22  C14        8.5890   38.5200   57.0410 C.ar    0  <0>0        0.0351
     23  C13        7.9120   38.4960   58.2150 C.ar    0  <0>0        0.0072
     24  C12        7.0570   37.4420   58.4730 C.ar    0  <0>0        0.0036
@<TRIPOS>BOND
     1    21    22   ar
     2    21    20   ar
     3    18    19    1
     4    18    17    1
     5    22    23   ar
     6    20    19    1
     7    20    24   ar
     8    17    16    1
     9    23    24   ar
    10    16    14    1
    11     2     1    2
    12    14     1    1
    13    14    15    1
    14     1     3    2
    15     1     4    1
    16     6     5    1
    17     4     5   ar
    18     4    10   ar
    19     5     7   ar
    20    10     9   ar
    21     7     8   ar
    22     9     8   ar
    23     9    11    1
    24    11    13   ar
    25    11    12   ar
