@<TRIPOS>MOLECULE
ZINC51756327_replica-1.pdb
 24 24 0 0 0
SMALL
GASTEIGER

@<TRIPOS>ATOM
      1  N2         0.7750   30.1130   55.1800 N.am    0  <0>0       -0.2833
      2  C10       -0.2460   29.7030   54.4020 C.2     0  <0>0        0.3042
      3  O2        -1.1120   30.4900   54.0720 O.2     0  <0>0       -0.2526
      4  N3        -0.3070   28.4210   53.9890 N.am    0  <0>0       -0.2642
      5  H13        1.4670   29.4850   55.4430 H       0  <0>0        0.1513
      6  C9         0.8420   31.5060   55.6270 C.3     0  <0>0        0.1367
      7  C4         0.8200   31.5510   57.1340 C.ar    0  <0>0        0.0778
      8  N1         0.3720   30.5120   57.8110 N.ar    0  <0>0       -0.2469
      9  C3         0.3330   30.5040   59.1300 C.ar    0  <0>0        0.0972
     10  C2         0.7660   31.5940   59.8570 C.ar    0  <0>0        0.0309
     11  C1         0.7170   31.5760   61.3630 C.3     0  <0>0        0.0358
     12  C6         1.2430   32.7120   59.1790 C.ar    0  <0>0        0.1333
     13  C5         1.2720   32.6800   57.7870 C.ar    0  <0>0        0.0270
     14  C8         1.7840   33.8620   57.0060 C.3     0  <0>0        0.0355
     15  O1         1.6740   33.8070   59.8580 O.3     0  <0>0       -0.4720
     16  C7         0.6970   34.8010   60.1720 C.3     0  <0>0        0.2524
     17  C11        0.7360   27.4740   54.3880 C.3     0  <0>0        0.0949
     18  C12        0.1780   26.5120   55.4400 C.3     0  <0>0        0.0199
     19  C13        0.6430   25.0890   55.1270 C.3     0  <0>0        0.0018
     20  C14        0.6850   26.9220   56.8240 C.3     0  <0>0        0.0018
     21  C15       -1.4180   27.9760   53.1440 C.3     0  <0>0        0.0949
     22  C16       -0.8670   27.4230   51.8280 C.3     0  <0>0        0.0199
     23  C17       -0.8010   25.8970   51.9050 C.3     0  <0>0        0.0018
     24  C18       -1.7850   27.8370   50.6760 C.3     0  <0>0        0.0018
@<TRIPOS>BOND
     1    24    22    1
     2    22    23    1
     3    22    21    1
     4    21     4    1
     5     4    17    1
     6     4     2   am
     7     3     2    2
     8    17    18    1
     9     2     1   am
    10    19    18    1
    11     1     5    1
    12     1     6    1
    13    18    20    1
    14     6     7    1
    15    14    13    1
    16     7    13   ar
    17     7     8   ar
    18    13    12   ar
    19     8     9   ar
    20     9    10   ar
    21    12    10   ar
    22    12    15    1
    23    10    11    1
    24    15    16    1
