@<TRIPOS>MOLECULE
ZINC48856186_replica-1.pdb
 20 20 0 0 0
SMALL
GASTEIGER

@<TRIPOS>ATOM
      1  N1         0.3390   30.2350   54.7080 N.am    0  <0>0       -0.2844
      2  C7         0.5890   31.2740   55.5300 C.2     0  <0>0        0.3010
      3  O1        -0.3180   32.0010   55.8850 O.2     0  <0>0       -0.2528
      4  N2         1.8460   31.5060   55.9570 N.am    0  <0>0       -0.2880
      5  H8         1.0630   29.6550   54.4250 H       0  <0>0        0.1513
      6  H9         2.5700   30.9260   55.6750 H       0  <0>0        0.1510
      7  C6        -1.0270   29.9820   54.2430 C.3     0  <0>0        0.1241
      8  C5        -1.0380   28.7650   53.3530 C.ar    0  <0>0        0.0267
      9  C4        -1.6480   28.5890   52.1570 C.ar    0  <0>0        0.0040
     10  C3        -1.5200   27.3730   51.5120 C.ar    0  <0>0        0.0024
     11  C2        -0.7870   26.3930   52.0950 C.ar    0  <0>0        0.0074
     12  C1        -0.5010   24.9990   51.6010 C.3     0  <0>0        0.0381
     13  S1        -0.2550   27.1810   53.6070 S.2     0  <0>0       -0.0939
     14  C8         2.1180   32.6360   56.8500 C.3     0  <0>0        0.1028
     15  C9         2.4220   32.1120   58.2560 C.3     0  <0>0        0.0867
     16  S2         0.9380   32.2580   59.2890 S.3     0  <0>0       -0.0396
     17  C10        0.7220   34.0460   59.4980 C.3     0  <0>0        0.4438
     18  F1         1.9750   34.6570   59.6080 F       0  <0>0       -0.1602
     19  F2         0.0430   34.5660   58.3910 F       0  <0>0       -0.1602
     20  F3        -0.0210   34.2930   60.6580 F       0  <0>0       -0.1602
@<TRIPOS>BOND
     1    10    11   ar
     2    10     9   ar
     3    12    11    1
     4    11    13   ar
     5     9     8   ar
     6     8    13   ar
     7     8     7    1
     8     7     1    1
     9     5     1    1
    10     1     2   am
    11     2     3    2
    12     2     4   am
    13     6     4    1
    14     4    14    1
    15    14    15    1
    16    15    16    1
    17    19    17    1
    18    16    17    1
    19    17    18    1
    20    17    20    1
