@<TRIPOS>MOLECULE
ZINC04979875_replica-1.pdb
 28 31 0 0 0
SMALL
GASTEIGER

@<TRIPOS>ATOM
      1  C1         7.3000   36.1510   61.2220 C.3     0  <0>0        0.0535
      2  C2         7.0030   36.3460   59.7580 C.2     0  <0>0        0.0757
      3  C3         5.8740   35.8920   59.0900 C.2     0  <0>0        0.0311
      4  C4         5.9790   36.2730   57.7780 C.3     0  <0>0        0.1872
      5  N1         7.1400   36.9390   57.6380 N.pl3   0  <0>0       -0.2159
      6  N2         7.7630   36.9790   58.8960 N.2     0  <0>0       -0.1851
      7  N3         4.9890   35.9660   56.8530 N.pl3   0  <0>0       -0.3174
      8  C9         3.7700   35.5380   57.3150 C.2     0  <0>0        0.0257
      9  C10        3.5780   35.1420   58.5920 C.2     0  <0>0        0.0436
     10  C11        4.6970   35.1160   59.6110 C.2     0  <0>0        0.0040
     11  C19        2.3080   34.7330   59.0370 C.2     0  <0>0        0.1739
     12  O1         2.1710   34.3770   60.1910 O.2     0  <0>0       -0.2913
     13  C20        1.1170   34.7270   58.1210 C.3     0  <0>0        0.0696
     14  C21        1.3120   35.8010   57.0450 C.3     0  <0>0        0.0141
     15  C22        2.6300   35.5220   56.3210 C.3     0  <0>0        0.0414
     16  H14        5.1560   36.0530   55.9020 H       0  <0>0        0.1483
     17  C12        5.1100   33.6890   59.8660 C.ar    0  <0>0       -0.0000
     18  C17        5.1920   33.2170   61.1630 C.ar    0  <0>0        0.0005
     19  C16        5.5650   31.9080   61.4000 C.ar    0  <0>0        0.0061
     20  C15        5.8670   31.0690   60.3350 C.ar    0  <0>0        0.0252
     21  C14        5.7880   31.5500   59.0330 C.ar    0  <0>0        0.0061
     22  C13        5.4100   32.8580   58.8030 C.ar    0  <0>0        0.0005
     23  S1         6.3490   29.4000   60.6330 S.3     0  <0>0       -0.1127
     24  C18        6.4630   28.6740   58.9750 C.3     0  <0>0        0.0742
     25  C5         7.6570   37.5230   56.3980 C.3     0  <0>0        0.0771
     26  C6         8.2120   36.4140   55.5030 C.3     0  <0>0        0.0215
     27  C7         6.5260   38.2500   55.6670 C.3     0  <0>0        0.0215
     28  C8         8.7720   38.5180   56.7280 C.3     0  <0>0        0.0215
@<TRIPOS>BOND
     1    26    25    1
     2    27    25    1
     3    16     7    1
     4    15    14    1
     5    15     8    1
     6    25    28    1
     7    25     5    1
     8     7     8    1
     9     7     4    1
    10    14    13    1
    11     8     9    2
    12     5     4    1
    13     5     6    1
    14     4     3    1
    15    13    11    1
    16     9    11    1
    17     9    10    1
    18    22    21   ar
    19    22    17   ar
    20     6     2    2
    21    24    23    1
    22    21    20   ar
    23    11    12    2
    24     3    10    2
    25     3     2    1
    26    10    17    1
    27     2     1    1
    28    17    18   ar
    29    20    23    1
    30    20    19   ar
    31    18    19   ar
