@<TRIPOS>MOLECULE
ZINC16729827_replica-1.pdb
 30 33 0 0 0
SMALL
GASTEIGER

@<TRIPOS>ATOM
      1  C7        -0.8280   29.9160   56.8890 C.ar    0  <0>0        0.0392
      2  C8        -0.4420   31.1210   57.4440 C.ar    0  <0>0        0.1019
      3  N2         0.3700   31.7380   56.5640 N.ar    0  <0>0       -0.2282
      4  N3         0.5230   30.9420   55.4270 N.ar    0  <0>0       -0.1651
      5  C9        -0.1760   29.8380   55.5750 C.ar    0  <0>0        0.1028
      6  C6        -1.7070   28.9100   57.4940 C.2     0  <0>0        0.0142
      7  C5        -1.1920   27.9750   58.3340 C.2     0  <0>0        0.0850
      8  C4        -1.8720   26.8840   59.0560 C.2     0  <0>0        0.2595
      9  S1         0.4950   27.7340   58.8730 S.3     0  <0>0       -0.0604
     10  N1        -1.1130   26.1090   59.8130 N.am    0  <0>0       -0.2441
     11  O1        -3.0720   26.7030   58.9570 O.2     0  <0>0       -0.2690
     12  C23        0.2150   26.3170   59.9250 C.2     0  <0>0        0.1212
     13  S2         1.3550   25.4390   60.8510 S.2     0  <0>0       -0.0272
     14  C3        -1.7290   25.0040   60.5510 C.3     0  <0>0        0.0995
     15  C2        -1.6750   23.7320   59.7020 C.3     0  <0>0        0.0219
     16  C1        -3.0940   23.1990   59.4930 C.3     0  <0>0        0.0018
     17  C10       -0.2870   28.7270   54.6010 C.ar    0  <0>0        0.0216
     18  C15       -1.0900   28.8650   53.4710 C.ar    0  <0>0        0.0309
     19  C14       -1.1880   27.8250   52.5650 C.ar    0  <0>0        0.1362
     20  C13       -0.4880   26.6480   52.7800 C.ar    0  <0>0        0.0056
     21  F1        -1.9660   27.9560   51.4690 F       0  <0>0       -0.2045
     22  C12        0.3100   26.5090   53.9000 C.ar    0  <0>0       -0.0020
     23  C16       -0.5980   25.5180   51.7890 C.3     0  <0>0        0.0334
     24  C11        0.4190   27.5420   54.8080 C.ar    0  <0>0        0.0014
     25  C17        0.9700   32.9890   56.7610 C.ar    0  <0>0        0.0828
     26  C22        0.2910   33.9840   57.4530 C.ar    0  <0>0        0.0191
     27  C21        0.8850   35.2150   57.6460 C.ar    0  <0>0        0.0015
     28  C20        2.1540   35.4590   57.1510 C.ar    0  <0>0        0.0001
     29  C19        2.8310   34.4700   56.4620 C.ar    0  <0>0        0.0015
     30  C18        2.2460   33.2340   56.2700 C.ar    0  <0>0        0.0191
@<TRIPOS>BOND
     1    21    19    1
     2    23    20    1
     3    19    20   ar
     4    19    18   ar
     5    20    22   ar
     6    18    17   ar
     7    22    24   ar
     8    17    24   ar
     9    17     5    1
    10     4     5   ar
    11     4     3   ar
    12     5     1   ar
    13    30    29   ar
    14    30    25   ar
    15    29    28   ar
    16     3    25    1
    17     3     2   ar
    18    25    26   ar
    19     1     2   ar
    20     1     6    1
    21    28    27   ar
    22    26    27   ar
    23     6     7    2
    24     7     9    1
    25     7     8    1
    26     9    12    1
    27    11     8    2
    28     8    10   am
    29    16    15    1
    30    15    14    1
    31    10    12    1
    32    10    14    1
    33    12    13    2
