@<TRIPOS>MOLECULE
ZINC52908563_replica-1.pdb
 20 21 0 0 0
SMALL
GASTEIGER

@<TRIPOS>ATOM
      1  C1        -1.5080   26.0770   51.0910 C.ar    0  <0>0        0.0040
      2  C2        -1.6520   27.4110   51.4170 C.ar    0  <0>0        0.0370
      3  C3        -1.0530   27.9170   52.5600 C.ar    0  <0>0        0.1410
      4  C4        -0.3010   27.0670   53.3840 C.ar    0  <0>0        0.0641
      5  C5        -0.1630   25.7180   53.0420 C.ar    0  <0>0        0.0623
      6  C6        -0.7660   25.2330   51.9000 C.ar    0  <0>0        0.0117
      7 Cl          0.7650   24.6550   54.0530 Cl      0  <0>0       -0.0821
      8  O1        -1.1930   29.2280   52.8810 O.3     0  <0>0       -0.4750
      9  C8        -2.5270   29.7210   53.0250 C.3     0  <0>0        0.2106
     10  C9        -2.5660   30.7670   54.1410 C.3     0  <0>0        0.0802
     11  C10       -2.3380   30.0940   55.4700 C.ar    0  <0>0        0.0110
     12  S2        -1.2030   30.5370   56.7750 S.2     0  <0>0       -0.0907
     13  C13       -1.6110   29.2270   57.9180 C.ar    0  <0>0        0.0351
     14  C12       -2.5640   28.5470   57.2370 C.ar    0  <0>0        0.0072
     15  C11       -2.9370   28.9910   55.9820 C.ar    0  <0>0        0.0028
     16  C7         0.3410   27.5930   54.6010 C.2     0  <0>0        0.0818
     17  S1         0.2500   26.7100   56.0660 S.2     0  <0>0       -0.0350
     18  N1         0.9990   28.7690   54.5620 N.am    0  <0>0       -0.3516
     19  H4         0.9890   29.3040   53.7530 H       0  <0>0        0.1428
     20  H5         1.4840   29.0790   55.3420 H       0  <0>0        0.1428
@<TRIPOS>BOND
     1     1     2   ar
     2     1     6   ar
     3     2     3   ar
     4     6     5   ar
     5     3     8    1
     6     3     4   ar
     7     8     9    1
     8     9    10    1
     9     5     4   ar
    10     5     7    1
    11     4    16    1
    12    19    18    1
    13    10    11    1
    14    18    16    1
    15    18    20    1
    16    16    17    2
    17    11    15   ar
    18    11    12   ar
    19    15    14   ar
    20    12    13   ar
    21    14    13   ar
