@<TRIPOS>MOLECULE
ZINC13479380_replica-1.pdb
 23 24 0 0 0
SMALL
GASTEIGER

@<TRIPOS>ATOM
      1  N2         8.3620   37.4400   57.9860 N.am    0  <0>0       -0.2959
      2  H14        8.5820   38.3840   57.9520 H       0  <0>0        0.1539
      3  C8         7.4140   36.9280   57.1430 C.2     0  <0>0        0.1351
      4  S2         7.7360   36.7810   55.5210 S.2     0  <0>0       -0.0185
      5  N1         6.2010   36.5360   57.6360 N.am    0  <0>0       -0.3175
      6  H20        5.6950   37.1340   58.2090 H       0  <0>0        0.1484
      7  C7         5.6660   35.2150   57.3000 C.3     0  <0>0        0.0705
      8  C2         4.1650   35.3270   57.0270 C.3     0  <0>0        0.0180
      9  C1         3.9300   36.2850   55.8560 C.3     0  <0>0        0.0017
     10  C3         3.4570   35.8620   58.2730 C.3     0  <0>0        0.0016
     11  C4         3.6910   34.9040   59.4430 C.3     0  <0>0        0.0001
     12  C5         5.1930   34.7920   59.7170 C.3     0  <0>0        0.0017
     13  C6         5.9000   34.2570   58.4700 C.3     0  <0>0        0.0195
     14  C9         9.0160   36.6000   58.8960 C.ar    0  <0>0        0.0496
     15  C14        9.3310   37.0630   60.1660 C.ar    0  <0>0        0.0152
     16  C13        9.9710   36.2330   61.0650 C.ar    0  <0>0        0.0076
     17  C12       10.3090   34.9380   60.6950 C.ar    0  <0>0        0.0303
     18  C11       10.0000   34.4760   59.4220 C.ar    0  <0>0        0.0076
     19  C10        9.3550   35.3040   58.5250 C.ar    0  <0>0        0.0152
     20  S1        11.1330   33.8800   61.8390 S.3     0  <0>0       -0.0442
     21  C15       12.5860   34.8380   62.3540 C.3     0  <0>0        0.3707
     22  F1        12.6660   34.8480   63.7510 F       0  <0>0       -0.1852
     23  F2        13.7420   34.2540   61.8250 F       0  <0>0       -0.1852
@<TRIPOS>BOND
     1     4     3    2
     2     9     8    1
     3     8     7    1
     4     8    10    1
     5     3     5    1
     6     3     1    1
     7     7     5    1
     8     7    13    1
     9     5     6    1
    10     2     1    1
    11     1    14    1
    12    10    11    1
    13    13    12    1
    14    19    14   ar
    15    19    18   ar
    16    14    15   ar
    17    18    17   ar
    18    11    12    1
    19    15    16   ar
    20    17    16   ar
    21    17    20    1
    22    23    21    1
    23    20    21    1
    24    21    22    1
