@<TRIPOS>MOLECULE
ZINC19759901_replica-1.pdb
 25 27 0 0 0
SMALL
GASTEIGER

@<TRIPOS>ATOM
      1  N1         7.4530   34.6270   57.3310 N.pl3   0  <0>0       -0.3019
      2  C6         8.7090   35.1770   57.8550 C.3     0  <0>0        0.1347
      3  C7         9.0180   34.5000   59.1970 C.3     0  <0>0        0.1856
      4  O1         7.9710   34.8410   60.1130 O.3     0  <0>0       -0.4762
      5  C8         6.6950   34.7500   59.6460 C.ar    0  <0>0        0.1516
      6  C9         6.4290   34.6510   58.2840 C.ar    0  <0>0        0.0824
      7  C10        5.1140   34.5650   57.8450 C.ar    0  <0>0        0.0198
      8  C11        4.0680   34.5840   58.7630 C.ar    0  <0>0        0.0278
      9  C12        4.3420   34.6810   60.1260 C.ar    0  <0>0        0.0054
     10  C13        5.6500   34.7630   60.5590 C.ar    0  <0>0        0.0383
     11  C14        2.6630   34.4970   58.2930 C.2     0  <0>0        0.1225
     12  N2         2.1190   35.5040   57.6130 N.2     0  <0>0       -0.3848
     13  C16        0.8700   35.4430   57.1870 C.2     0  <0>0        0.2042
     14  S1         0.3700   33.8320   57.7760 S.3     0  <0>0       -0.0599
     15  C15        1.9160   33.3840   58.5540 C.3     0  <0>0        0.1247
     16  N3         0.1410   36.3810   56.4740 N.pl3   0  <0>0       -0.3279
     17  H19       -0.0530   36.2280   55.4010 H       0  <0>0        0.1452
     18  H20       -0.2450   37.2780   56.9790 H       0  <0>0        0.1452
     19  C5         7.0460   35.3220   56.1020 C.3     0  <0>0        0.0910
     20  C4         8.0420   36.4410   55.7950 C.3     0  <0>0        0.0214
     21  C3         7.3510   37.7960   55.9550 C.3     0  <0>0        0.0018
     22  C2         8.1750   38.6810   56.8940 C.3     0  <0>0        0.0001
     23  C1         7.7040   38.4730   58.3350 C.3     0  <0>0        0.0000
     24  C17       10.3600   35.0020   59.7330 C.3     0  <0>0        0.0453
     25  C18       10.1230   36.1880   60.6680 C.3     0  <0>0        0.0039
@<TRIPOS>BOND
     1    17    16    1
     2    20    21    1
     3    20    19    1
     4    21    22    1
     5    19     1    1
     6    16    18    1
     7    16    13    1
     8    22    23    1
     9    13    12    2
    10    13    14    1
    11     1     2    1
    12     1     6    1
    13    12    11    2
    14    14    15    1
    15     7     6   ar
    16     7     8   ar
    17     2     3    1
    18     6     5   ar
    19    11    15    1
    20    11     8    1
    21     8     9   ar
    22     3    24    1
    23     3     4    1
    24     5     4    1
    25     5    10   ar
    26    24    25    1
    27     9    10   ar
