@<TRIPOS>MOLECULE
ZINC21363340_replica-1.pdb
 31 34 0 0 0
SMALL
GASTEIGER

@<TRIPOS>ATOM
      1  C11        0.7410   32.4970   56.6460 C.ar    0  <0>0        0.0661
      2  C12        0.3110   33.2350   57.7510 C.ar    0  <0>0        0.0070
      3  C13        1.0360   34.3300   58.1700 C.ar    0  <0>0        0.0149
      4  C14        2.1930   34.6990   57.4940 C.ar    0  <0>0        0.0516
      5  C15        2.6210   33.9690   56.3910 C.ar    0  <0>0        0.0149
      6  C16        1.9040   32.8700   55.9700 C.ar    0  <0>0        0.0070
      7  N2         2.9240   35.8100   57.9220 N.am    0  <0>0       -0.2681
      8  C17        4.1300   35.6420   58.5000 C.2     0  <0>0        0.3082
      9  O2         4.5470   34.5220   58.7220 O.2     0  <0>0       -0.2522
     10  N3         4.8740   36.7160   58.8330 N.am    0  <0>0       -0.2681
     11  H14        4.4660   37.7290   58.7030 H       0  <0>0        0.1564
     12  H13        2.5160   36.8230   57.7850 H       0  <0>0        0.1564
     13  C18        6.1640   36.5410   59.3450 C.ar    0  <0>0        0.0516
     14  C23        6.3990   36.6890   60.7050 C.ar    0  <0>0        0.0152
     15  C22        7.6730   36.5160   61.2090 C.ar    0  <0>0        0.0080
     16  C21        8.7170   36.1950   60.3570 C.ar    0  <0>0        0.0346
     17  C20        8.4850   36.0470   59.0010 C.ar    0  <0>0        0.0080
     18 Br         10.4600   35.9590   61.0490 Br      0  <0>0       -0.0490
     19  C19        7.2110   36.2130   58.4940 C.ar    0  <0>0        0.0152
     20  C10       -0.0320   31.3210   56.1950 C.2     0  <0>0        0.2775
     21  O1        -1.2340   30.9480   56.6660 O.2     0  <0>0       -0.4439
     22  C9        -1.6100   29.8350   56.0080 C.3     0  <0>0        0.2664
     23  C8        -0.6200   29.5370   55.1300 C.2     0  <0>0        0.1563
     24  N1         0.3390   30.4760   55.2640 N.2     0  <0>0       -0.3684
     25  C5        -0.5990   28.3890   54.1880 C.ar    0  <0>0        0.0292
     26  C4        -1.2470   28.4820   52.9580 C.ar    0  <0>0        0.0020
     27  C3        -1.2230   27.4130   52.0850 C.ar    0  <0>0       -0.0042
     28  C2        -0.5580   26.2500   52.4310 C.ar    0  <0>0       -0.0218
     29  C1        -0.5370   25.0850   51.4750 C.3     0  <0>0        0.0310
     30  C7         0.0860   26.1520   53.6510 C.ar    0  <0>0       -0.0042
     31  C6         0.0740   27.2180   54.5290 C.ar    0  <0>0        0.0020
@<TRIPOS>BOND
     1    29    28    1
     2    27    28   ar
     3    27    26   ar
     4    28    30   ar
     5    26    25   ar
     6    30    31   ar
     7    25    31   ar
     8    25    23    1
     9    23    24    2
    10    23    22    1
    11    24    20    2
    12     6     5   ar
    13     6     1   ar
    14    22    21    1
    15    20     1    1
    16    20    21    1
    17     5     4   ar
    18     1     2   ar
    19     4     7    1
    20     4     3   ar
    21     2     3   ar
    22    12     7    1
    23     7     8   am
    24    19    17   ar
    25    19    13   ar
    26     8     9    2
    27     8    10   am
    28    11    10    1
    29    10    13    1
    30    17    16   ar
    31    13    14   ar
    32    16    18    1
    33    16    15   ar
    34    14    15   ar
