@<TRIPOS>MOLECULE
ZINC05332919_replica-1.pdb
 31 33 0 0 0
SMALL
GASTEIGER

@<TRIPOS>ATOM
      1  C4         7.0940   35.9730   57.8470 C.ar    0  <0>0        0.0958
      2  C5         8.3370   36.6780   58.0960 C.ar    0  <0>0        0.0145
      3  C6         8.6430   37.6940   57.2500 C.ar    0  <0>0        0.0369
      4  S1         7.2720   37.7080   56.1140 S.2     0  <0>0       -0.0715
      5  C7         6.3350   36.4070   56.7670 C.ar    0  <0>0        0.0870
      6  N1         5.1220   35.9110   56.3170 N.am    0  <0>0       -0.2774
      7  C8         5.0960   34.8710   55.4600 C.2     0  <0>0        0.2465
      8  O3         6.1350   34.3690   55.0840 O.2     0  <0>0       -0.2729
      9  H7         4.2930   36.3120   56.6180 H       0  <0>0        0.1554
     10  C9         3.7770   34.3270   54.9750 C.3     0  <0>0        0.1739
     11  N2         2.6860   35.1480   55.5060 N.pl3   0  <0>0       -0.3253
     12  H10        2.3690   35.9160   55.0050 H       0  <0>0        0.1473
     13  C10        2.1010   34.8250   56.7320 C.ar    0  <0>0        0.0450
     14  C15        1.8570   33.4980   57.0590 C.ar    0  <0>0        0.0140
     15  C14        1.2790   33.1820   58.2720 C.ar    0  <0>0       -0.0030
     16  C13        0.9430   34.1850   59.1620 C.ar    0  <0>0       -0.0218
     17  C12        1.1850   35.5080   58.8410 C.ar    0  <0>0       -0.0030
     18  C16        0.3120   33.8370   60.4860 C.3     0  <0>0        0.0310
     19  C11        1.7680   35.8310   57.6310 C.ar    0  <0>0        0.0140
     20  C3         6.6600   34.8600   58.6920 C.2     0  <0>0        0.3429
     21  O2         6.8370   33.7130   58.3260 O.2     0  <0>0       -0.2448
     22  O1         6.0640   35.1060   59.8760 O.3     0  <0>0       -0.4454
     23  C2         4.6270   34.9020   59.9460 C.3     0  <0>0        0.2089
     24  C1         4.3350   33.5490   60.5970 C.3     0  <0>0        0.0513
     25  C17        9.2300   36.3050   59.2190 C.ar    0  <0>0        0.0007
     26  C22        9.3540   37.1470   60.3230 C.ar    0  <0>0       -0.0003
     27  C21       10.1860   36.7940   61.3670 C.ar    0  <0>0       -0.0043
     28  C20       10.8960   35.6080   61.3170 C.ar    0  <0>0       -0.0218
     29  C19       10.7770   34.7680   60.2240 C.ar    0  <0>0       -0.0043
     30  C23       11.8030   35.2280   62.4600 C.3     0  <0>0        0.0310
     31  C18        9.9450   35.1080   59.1770 C.ar    0  <0>0       -0.0003
@<TRIPOS>BOND
     1    10     7    1
     2    10    11    1
     3    12    11    1
     4     8     7    2
     5     7     6   am
     6    11    13    1
     7     4     5   ar
     8     4     3   ar
     9     6     9    1
    10     6     5    1
    11    13    14   ar
    12    13    19   ar
    13     5     1   ar
    14    14    15   ar
    15     3     2   ar
    16    19    17   ar
    17     1     2   ar
    18     1    20    1
    19     2    25    1
    20    15    16   ar
    21    21    20    2
    22    20    22    1
    23    17    16   ar
    24    16    18    1
    25    31    25   ar
    26    31    29   ar
    27    25    26   ar
    28    22    23    1
    29    23    24    1
    30    29    28   ar
    31    26    27   ar
    32    28    27   ar
    33    28    30    1
