@<TRIPOS>MOLECULE
ZINC32101652_replica-1.pdb
 22 24 0 0 0
SMALL
GASTEIGER

@<TRIPOS>ATOM
      1  C9         0.0710   28.6290   54.9310 C.ar    0  <0>0        0.0528
      2  C10        0.6550   27.3820   55.2280 C.ar    0  <0>0        0.0046
      3  C11        0.4910   26.3210   54.3990 C.ar    0  <0>0        0.0002
      4  C12       -0.2710   26.4520   53.2210 C.ar    0  <0>0        0.0029
      5  C13       -0.4510   25.3640   52.3520 C.ar    0  <0>0        0.0001
      6  C14       -1.1920   25.5190   51.2200 C.ar    0  <0>0        0.0000
      7  C15       -1.7770   26.7440   50.9080 C.ar    0  <0>0        0.0001
      8  C16       -1.6240   27.8210   51.7270 C.ar    0  <0>0        0.0030
      9  C17       -0.8660   27.6990   52.9040 C.ar    0  <0>0        0.0338
     10  C18       -0.6940   28.7910   53.7760 C.ar    0  <0>0        0.1350
     11  C8         0.2630   29.7620   55.8450 C.2     0  <0>0        0.1018
     12  N1        -0.3420   29.7750   57.0010 N.2     0  <0>0       -0.2444
     13  C7        -1.0440   28.6780   57.4190 C.ar    0  <0>0        0.0734
     14  C2        -2.3930   28.5390   57.0830 C.ar    0  <0>0       -0.0045
     15  C1        -3.0780   29.5980   56.2570 C.3     0  <0>0        0.0326
     16  C3        -3.0940   27.4280   57.5020 C.ar    0  <0>0       -0.0028
     17  C4        -2.4660   26.4550   58.2590 C.ar    0  <0>0       -0.0005
     18  C5        -1.1330   26.5890   58.6020 C.ar    0  <0>0       -0.0028
     19  C6        -0.4190   27.6950   58.1890 C.ar    0  <0>0       -0.0045
     20  C19        1.0340   27.8400   58.5640 C.3     0  <0>0        0.0326
     21  O1        -1.2600   29.9900   53.4920 O.3     0  <0>0       -0.5055
     22  H14       -1.4570   30.5260   54.2710 H       0  <0>0        0.2922
@<TRIPOS>BOND
     1     7     6   ar
     2     7     8   ar
     3     6     5   ar
     4     8     9   ar
     5     5     4   ar
     6     9     4   ar
     7     9    10   ar
     8     4     3   ar
     9    21    10    1
    10    21    22    1
    11    10     1   ar
    12     3     2   ar
    13     1     2   ar
    14     1    11    1
    15    11    12    2
    16    15    14    1
    17    12    13    1
    18    14    13   ar
    19    14    16   ar
    20    13    19   ar
    21    16    17   ar
    22    19    20    1
    23    19    18   ar
    24    17    18   ar
