@<TRIPOS>MOLECULE
ZINC00504685_replica-1.pdb
 26 27 0 0 0
SMALL
GASTEIGER

@<TRIPOS>ATOM
      1  N2        -0.3330   31.8990   55.0790 N.am    0  <0>0       -0.2028
      2  C10        0.3930   32.0480   56.2050 C.2     0  <0>0        0.2856
      3  O1         1.1560   31.1730   56.5560 O.2     0  <0>0       -0.2693
      4  H11       -0.9420   32.6000   54.7980 H       0  <0>0        0.1774
      5  C11        0.2570   33.3030   57.0290 C.3     0  <0>0        0.2911
      6  O2         0.3520   32.9740   58.4160 O.3     0  <0>0       -0.4659
      7  C12        1.5070   33.3040   59.0500 C.ar    0  <0>0        0.1349
      8  C17        1.9560   32.5410   60.1180 C.ar    0  <0>0        0.0115
      9  C16        3.1310   32.8790   60.7620 C.ar    0  <0>0       -0.0016
     10  C15        3.8600   33.9760   60.3420 C.ar    0  <0>0       -0.0044
     11  C14        3.4150   34.7380   59.2760 C.ar    0  <0>0       -0.0189
     12  C13        2.2440   34.4010   58.6270 C.ar    0  <0>0        0.0323
     13  C21        4.2130   35.9330   58.8200 C.3     0  <0>0        0.0311
     14  C18        1.1620   31.3460   60.5780 C.3     0  <0>0        0.0253
     15  C19        2.1060   30.1630   60.8050 C.3     0  <0>0        0.0048
     16  C20        0.4420   31.6830   61.8850 C.3     0  <0>0        0.0048
     17  N1        -0.2050   30.7330   54.3130 N.2     0  <0>0       -0.1775
     18  C9        -1.0450   29.7570   54.4740 C.2     0  <0>0        0.1173
     19  C5        -0.9120   28.5290   53.6680 C.ar    0  <0>0        0.0167
     20  C4        -1.4800   28.4610   52.3930 C.ar    0  <0>0        0.0010
     21  C3        -1.3510   27.3090   51.6460 C.ar    0  <0>0       -0.0042
     22  C2        -0.6610   26.2220   52.1550 C.ar    0  <0>0       -0.0222
     23  C1        -0.5240   24.9680   51.3320 C.3     0  <0>0        0.0310
     24  C7        -0.0970   26.2830   53.4160 C.ar    0  <0>0       -0.0085
     25  C6        -0.2220   27.4260   54.1780 C.ar    0  <0>0       -0.0206
     26  C8         0.3870   27.4880   55.5550 C.3     0  <0>0        0.0311
@<TRIPOS>BOND
     1    23    22    1
     2    21    22   ar
     3    21    20   ar
     4    22    24   ar
     5    20    19   ar
     6    24    25   ar
     7    19    25   ar
     8    19    18    1
     9    25    26    1
    10    17    18    2
    11    17     1    1
    12     4     1    1
    13     1     2   am
    14     2     3    2
    15     2     5    1
    16     5     6    1
    17     6     7    1
    18    12     7   ar
    19    12    11   ar
    20    13    11    1
    21     7     8   ar
    22    11    10   ar
    23     8    14    1
    24     8     9   ar
    25    10     9   ar
    26    14    15    1
    27    14    16    1
