@<TRIPOS>MOLECULE
ZINC16851611_replica-1.pdb
 21 23 0 0 0
SMALL
GASTEIGER

@<TRIPOS>ATOM
      1  C10       -0.2490   29.3540   55.1970 C.3     0  <0>0        0.1814
      2  C11       -1.6260   29.5010   55.6980 C.1     0  <0>0        0.0966
      3  N1        -2.6880   29.6140   56.0840 N.1     0  <0>0       -0.1938
      4  C9        -0.0500   27.9550   54.6770 C.2     0  <0>0       -0.0079
      5  C4        -0.5610   27.4650   53.3820 C.ar    0  <0>0       -0.0054
      6  C3        -1.2950   28.0910   52.3720 C.ar    0  <0>0       -0.0005
      7  C5        -0.1950   26.1270   53.2280 C.ar    0  <0>0       -0.0045
      8  C2        -1.6480   27.3860   51.2400 C.ar    0  <0>0       -0.0000
      9  C1        -1.2750   26.0610   51.0970 C.ar    0  <0>0       -0.0000
     10  C6        -0.5520   25.4320   52.0960 C.ar    0  <0>0       -0.0003
     11  C7         0.5760   25.7530   54.4710 C.2     0  <0>0       -0.0217
     12  C8         0.6010   27.0030   55.3200 C.3     0  <0>0        0.0506
     13  N2         0.6970   29.6090   56.2870 N.pl3   0  <0>0       -0.3193
     14  H9         1.3020   28.9090   56.5770 H       0  <0>0        0.1480
     15  C12        0.7250   30.8600   56.9080 C.ar    0  <0>0        0.0456
     16  C17        0.5410   30.9600   58.2810 C.ar    0  <0>0        0.0152
     17  C16        0.5700   32.1980   58.8930 C.ar    0  <0>0        0.0127
     18  C15        0.7820   33.3390   58.1390 C.ar    0  <0>0        0.0578
     19  C14        0.9650   33.2430   56.7710 C.ar    0  <0>0        0.0127
     20 Cl          0.8170   34.8930   58.9120 Cl      0  <0>0       -0.0822
     21  C13        0.9440   32.0070   56.1550 C.ar    0  <0>0        0.0152
@<TRIPOS>BOND
     1     9     8   ar
     2     9    10   ar
     3     8     6   ar
     4    10     7   ar
     5     6     5   ar
     6     7     5   ar
     7     7    11    2
     8     5     4    2
     9    11    12    1
    10     4     1    1
    11     4    12    1
    12     1     2    1
    13     1    13    1
    14     2     3    3
    15    21    19   ar
    16    21    15   ar
    17    13    14    1
    18    13    15    1
    19    19    18   ar
    20    15    16   ar
    21    18    17   ar
    22    18    20    1
    23    16    17   ar
