@<TRIPOS>MOLECULE
ZINC37011896_replica-1.pdb
 20 21 0 0 0
SMALL
GASTEIGER

@<TRIPOS>ATOM
      1  C6        10.3420   34.7850   60.5120 C.2     0  <0>0        0.2115
      2  N2         9.7890   34.8580   59.3220 N.2     0  <0>0       -0.3803
      3  C7         9.1990   35.9840   58.8630 C.2     0  <0>0        0.1390
      4  C8         8.5730   36.1940   57.6140 C.2     0  <0>0        0.0325
      5  C9         8.0190   37.4080   57.3030 C.2     0  <0>0        0.0561
      6  C10        8.0500   38.4690   58.1970 C.3     0  <0>0        0.0569
      7  C11        8.6550   38.2990   59.4290 C.2     0  <0>0       -0.0123
      8  C12        9.2120   37.0860   59.7480 C.2     0  <0>0        0.0587
      9  S1        10.0590   36.4260   61.1640 S.3     0  <0>0       -0.0380
     10  N1        10.9730   33.7140   61.1090 N.pl3   0  <0>0       -0.3049
     11  H12       10.9460   32.8390   60.6900 H       0  <0>0        0.1496
     12  C4        11.6870   33.8960   62.3750 C.3     0  <0>0        0.0718
     13  C5        13.1330   34.3070   62.0910 C.3     0  <0>0        0.0213
     14  C3        11.6740   32.5840   63.1620 C.3     0  <0>0        0.0196
     15  C2        13.0580   31.9360   63.0920 C.3     0  <0>0        0.0017
     16  C1        12.9720   30.4950   63.6000 C.3     0  <0>0        0.0001
     17  C13        7.3600   37.5950   55.9610 C.3     0  <0>0        0.4153
     18  F1         7.4040   38.9490   55.6040 F       0  <0>0       -0.1662
     19  F2         8.0370   36.8380   55.0000 F       0  <0>0       -0.1662
     20  F3         6.0280   37.1760   56.0310 F       0  <0>0       -0.1662
@<TRIPOS>BOND
     1    19    17    1
     2    18    17    1
     3    17    20    1
     4    17     5    1
     5     5     4    2
     6     5     6    1
     7     4     3    1
     8     6     7    1
     9     3     2    2
    10     3     8    1
    11     2     1    2
    12     7     8    2
    13     8     9    1
    14     1    10    1
    15     1     9    1
    16    11    10    1
    17    10    12    1
    18    13    12    1
    19    12    14    1
    20    15    14    1
    21    15    16    1
