@<TRIPOS>MOLECULE
ZINC03957923_replica-1.pdb
 22 24 0 0 0
SMALL
GASTEIGER

@<TRIPOS>ATOM
      1  C3         4.1490   34.6150   59.0820 C.3     0  <0>0        0.1389
      2  C4         4.6390   33.9590   60.2290 C.2     0  <0>0        0.1827
      3  O1         3.9390   33.1580   60.8330 O.2     0  <0>0       -0.2908
      4  C5         5.9520   34.2430   60.6700 C.2     0  <0>0        0.0531
      5  C6         6.7100   35.1390   59.9800 C.2     0  <0>0        0.0609
      6  N1         6.2060   35.7660   58.8700 N.am    0  <0>0       -0.2369
      7  C7         4.9450   35.5030   58.4240 C.2     0  <0>0        0.2400
      8  O2         4.4790   36.1330   57.3230 O.2     0  <0>0       -0.2737
      9  C14        8.0860   35.4370   60.4300 C.ar    0  <0>0        0.0141
     10  C19        8.3230   36.5030   61.2990 C.ar    0  <0>0        0.0012
     11  C18        9.6100   36.7760   61.7160 C.ar    0  <0>0        0.0000
     12  C17       10.6640   35.9950   61.2740 C.ar    0  <0>0        0.0000
     13  C16       10.4340   34.9360   60.4130 C.ar    0  <0>0        0.0000
     14  C15        9.1520   34.6530   59.9890 C.ar    0  <0>0        0.0012
     15  C8         7.0020   36.6870   58.1800 C.ar    0  <0>0        0.0581
     16  C13        7.0830   38.0020   58.6200 C.ar    0  <0>0        0.0152
     17  C12        7.8700   38.9100   57.9380 C.ar    0  <0>0        0.0013
     18  C11        8.5760   38.5100   56.8180 C.ar    0  <0>0        0.0001
     19  C10        8.4970   37.2010   56.3770 C.ar    0  <0>0        0.0013
     20  C9         7.7160   36.2870   57.0590 C.ar    0  <0>0        0.0152
     21  C2         2.7540   34.3350   58.5850 C.3     0  <0>0        0.0169
     22  C1         1.7860   35.3590   59.1780 C.3     0  <0>0        0.0010
@<TRIPOS>BOND
     1    19    18   ar
     2    19    20   ar
     3    18    17   ar
     4    20    15   ar
     5     8     7    2
     6    17    16   ar
     7    15    16   ar
     8    15     6    1
     9     7     6   am
    10     7     1    1
    11    21     1    1
    12    21    22    1
    13     6     5    1
    14     1     2    1
    15     5     9    1
    16     5     4    2
    17    14    13   ar
    18    14     9   ar
    19     2     4    1
    20     2     3    2
    21    13    12   ar
    22     9    10   ar
    23    12    11   ar
    24    10    11   ar
