@<TRIPOS>MOLECULE
ZINC05710625_replica-1.pdb
 25 27 0 0 0
SMALL
GASTEIGER

@<TRIPOS>ATOM
      1  C8         9.5030   35.4620   59.4470 C.2     0  <0>0        0.1440
      2  C9         8.6630   36.3630   60.0100 C.3     0  <0>0        0.1240
      3  S2         9.4950   36.6690   61.5610 S.3     0  <0>0       -0.0596
      4  C10       10.8440   35.6040   61.3090 C.2     0  <0>0        0.2107
      5  N1        10.5830   35.1040   60.1150 N.2     0  <0>0       -0.3848
      6  C7         9.2140   34.8850   58.0850 C.3     0  <0>0        0.2635
      7  O2         8.1950   35.6820   57.4280 O.3     0  <0>0       -0.4376
      8  C6         7.1320   35.0220   56.9220 C.2     0  <0>0        0.3474
      9  O1         7.2620   34.3330   55.9280 O.2     0  <0>0       -0.2443
     10  C5         5.8240   35.1350   57.5700 C.ar    0  <0>0        0.1012
     11  C2         4.6590   35.7150   57.0900 C.ar    0  <0>0       -0.0091
     12  C1         4.6000   36.3510   55.7260 C.3     0  <0>0        0.0318
     13  C3         3.5600   35.6780   57.9120 C.ar    0  <0>0        0.0034
     14  C4         3.6660   35.0990   59.1370 C.ar    0  <0>0        0.0353
     15  S1         5.3170   34.5700   59.1840 S.2     0  <0>0       -0.0804
     16  N2        11.9190   35.3470   62.1460 N.pl3   0  <0>0       -0.2830
     17  H9        12.4580   36.0790   62.4810 H       0  <0>0        0.1551
     18  C11       12.2250   34.0290   62.5060 C.ar    0  <0>0        0.0507
     19  C16       13.5450   33.6550   62.7170 C.ar    0  <0>0        0.0178
     20  C15       13.8470   32.3550   63.0730 C.ar    0  <0>0        0.0382
     21  C14       12.8300   31.4230   63.2190 C.ar    0  <0>0        0.1388
     22  C13       11.5110   31.7950   63.0090 C.ar    0  <0>0        0.0382
     23  C12       11.2070   33.0970   62.6580 C.ar    0  <0>0        0.0178
     24  O3        13.1270   30.1430   63.5700 O.3     0  <0>0       -0.4714
     25  C17       12.2220   29.4870   64.4590 C.3     0  <0>0        0.2525
@<TRIPOS>BOND
     1    12    11    1
     2     9     8    2
     3     8     7    1
     4     8    10    1
     5    11    10   ar
     6    11    13   ar
     7     7     6    1
     8    10    15   ar
     9    13    14   ar
    10     6     1    1
    11    14    15   ar
    12     1     2    1
    13     1     5    2
    14     2     3    1
    15     5     4    2
    16     4     3    1
    17     4    16    1
    18    16    17    1
    19    16    18    1
    20    18    23   ar
    21    18    19   ar
    22    23    22   ar
    23    19    20   ar
    24    22    21   ar
    25    20    21   ar
    26    21    24    1
    27    24    25    1
