@<TRIPOS>MOLECULE
ZINC04472897_replica-1.pdb
 25 28 0 0 0
SMALL
GASTEIGER

@<TRIPOS>ATOM
      1  N2         2.1840   32.8130   55.5880 N.am    0  <0>0       -0.2537
      2  C8         1.2690   32.5430   56.5390 C.2     0  <0>0        0.2397
      3  O1         1.4460   32.9290   57.6760 O.2     0  <0>0       -0.2737
      4  H9         2.0440   32.5050   54.6780 H       0  <0>0        0.1577
      5  C9         0.0270   31.7650   56.1910 C.3     0  <0>0        0.1502
      6  S2         0.2420   30.0320   56.6810 S.3     0  <0>0       -0.0659
      7  C10       -0.1900   29.1230   55.2350 C.2     0  <0>0        0.1874
      8  S3        -1.1870   29.6380   53.8430 S.3     0  <0>0       -0.0468
      9  C16       -1.0730   28.1260   52.9160 C.2     0  <0>0        0.0579
     10  C11       -0.2720   27.3180   53.7540 C.2     0  <0>0        0.1381
     11  C15       -1.5620   27.6880   51.7120 C.2     0  <0>0       -0.0123
     12  N3         0.1340   27.8920   54.9080 N.2     0  <0>0       -0.3886
     13  C12        0.0030   26.0130   53.2840 C.2     0  <0>0        0.0284
     14  C13       -0.4910   25.5830   52.0810 C.2     0  <0>0       -0.0188
     15  C14       -1.2730   26.4050   51.2830 C.3     0  <0>0        0.0527
     16  C7         3.3310   33.5310   55.9080 C.2     0  <0>0        0.2126
     17  S1         3.5720   35.1980   55.8550 S.3     0  <0>0       -0.0610
     18  C6         5.2530   35.2050   56.4100 C.3     0  <0>0        0.1034
     19  C5         5.5100   33.8850   56.5980 C.2     0  <0>0        0.0989
     20  C17        6.1800   36.3540   56.6290 C.3     0  <0>0        0.0180
     21  C4         6.8760   33.4220   57.0830 C.3     0  <0>0        0.0554
     22  N1         4.4900   33.0740   56.3270 N.2     0  <0>0       -0.3885
     23  C3         7.8870   34.5450   56.8430 C.3     0  <0>0        0.0071
     24  C2         7.3780   35.8540   57.4520 C.3     0  <0>0        0.0017
     25  C1         8.4930   36.9010   57.4250 C.3     0  <0>0        0.0001
@<TRIPOS>BOND
     1    15    11    1
     2    15    14    1
     3    11     9    2
     4    14    13    2
     5     9    10    1
     6     9     8    1
     7    13    10    1
     8    10    12    2
     9     8     7    1
    10     4     1    1
    11    12     7    2
    12     7     6    1
    13     1    16    1
    14     1     2   am
    15    17    16    1
    16    17    18    1
    17    16    22    2
    18     5     2    1
    19     5     6    1
    20    22    19    2
    21    18    19    1
    22    18    20    1
    23     2     3    2
    24    19    21    1
    25    20    24    1
    26    23    21    1
    27    23    24    1
    28    25    24    1
