@<TRIPOS>MOLECULE
ZINC66183965_replica-1.pdb
 23 24 0 0 0
SMALL
GASTEIGER

@<TRIPOS>ATOM
      1  C9         9.8020   36.0930   61.1870 C.3     0  <0>0        0.1085
      2  C8        11.0340   35.6910   61.9990 C.3     0  <0>0        0.1085
      3  N1        11.6330   34.4890   61.4160 N.pl3   0  <0>0       -0.3315
      4  H7        11.4040   34.2220   60.5120 H       0  <0>0        0.1469
      5  C3        12.5340   33.7260   62.1620 C.ar    0  <0>0        0.0414
      6  C2        12.1110   32.5520   62.7750 C.ar    0  <0>0        0.0018
      7  C1        10.6800   32.1010   62.6360 C.3     0  <0>0        0.0332
      8  C7        13.0050   31.8010   63.5150 C.ar    0  <0>0        0.0549
      9  C6        14.3200   32.2120   63.6380 C.ar    0  <0>0        0.0112
     10 Cl         12.4760   30.3390   64.2880 Cl      0  <0>0       -0.0825
     11  C5        14.7430   33.3800   63.0300 C.ar    0  <0>0        0.0021
     12  C4        13.8550   34.1360   62.2930 C.ar    0  <0>0        0.0140
     13  N2        10.1340   36.0890   59.7600 N.pl3   0  <0>0       -0.3315
     14  H12       10.9970   36.4160   59.4630 H       0  <0>0        0.1469
     15  C10        9.2070   35.6150   58.8280 C.ar    0  <0>0        0.0406
     16  C15        8.4060   36.5070   58.1270 C.ar    0  <0>0       -0.0094
     17  C14        7.4950   36.0360   57.2030 C.ar    0  <0>0       -0.0031
     18  C13        7.3730   34.6750   56.9820 C.ar    0  <0>0       -0.0002
     19  C12        8.1660   33.7850   57.6810 C.ar    0  <0>0        0.0012
     20  C11        9.0830   34.2490   58.6030 C.ar    0  <0>0        0.0140
     21  C16        8.5330   37.9890   58.3730 C.3     0  <0>0        0.0236
     22  C17        8.5220   38.7290   57.0350 C.3     0  <0>0        0.0047
     23  C18        7.3600   38.4670   59.2300 C.3     0  <0>0        0.0047
@<TRIPOS>BOND
     1    18    17   ar
     2    18    19   ar
     3    22    21    1
     4    17    16   ar
     5    19    20   ar
     6    16    21    1
     7    16    15   ar
     8    21    23    1
     9    20    15   ar
    10    15    13    1
    11    14    13    1
    12    13     1    1
    13     4     3    1
    14     1     2    1
    15     3     2    1
    16     3     5    1
    17     5    12   ar
    18     5     6   ar
    19    12    11   ar
    20     7     6    1
    21     6     8   ar
    22    11     9   ar
    23     8     9   ar
    24     8    10    1
