@<TRIPOS>MOLECULE
ZINC15015656_replica-1.pdb
 27 29 0 0 0
SMALL
GASTEIGER

@<TRIPOS>ATOM
      1  C8         3.3880   33.6030   56.2100 C.2     0  <0>0        0.0142
      2  C9         4.5340   34.2860   55.9630 C.2     0  <0>0        0.0858
      3  C10        5.0510   34.8150   54.6870 C.2     0  <0>0        0.2570
      4  O3         4.4390   34.6750   53.6440 O.2     0  <0>0       -0.2692
      5  N1         6.2100   35.4520   54.7270 N.am    0  <0>0       -0.2602
      6  C11        6.8870   35.6020   55.9170 C.2     0  <0>0        0.1658
      7  N2         8.0380   36.1990   56.1330 N.2     0  <0>0       -0.2244
      8  S1         5.8180   34.7920   57.0970 S.3     0  <0>0       -0.0483
      9  H8         6.5860   35.8160   53.9110 H       0  <0>0        0.1571
     10  C4         2.9770   33.3330   57.5930 C.ar    0  <0>0        0.0379
     11  C3         2.1120   34.2130   58.2550 C.ar    0  <0>0        0.0400
     12  C2         1.7300   33.9530   59.5570 C.ar    0  <0>0        0.1394
     13  C7         2.2030   32.8230   60.2120 C.ar    0  <0>0        0.0466
     14  C6         3.0520   31.9440   59.5660 C.ar    0  <0>0        0.0712
     15  C5         3.4460   32.1900   58.2600 C.ar    0  <0>0        0.1399
     16 Br          3.6840   30.4060   60.4680 Br      0  <0>0       -0.0457
     17  O1         0.8900   34.8080   60.2000 O.3     0  <0>0       -0.4714
     18  C1        -0.0070   34.2390   61.1560 C.3     0  <0>0        0.2525
     19  O2         4.2850   31.3290   57.6280 O.3     0  <0>0       -0.5050
     20  H6         3.9870   31.0610   56.7490 H       0  <0>0        0.2922
     21  C12        8.5570   36.2480   57.3980 C.ar    0  <0>0        0.0833
     22  C17        8.4260   37.4070   58.1660 C.ar    0  <0>0        0.0197
     23  C16        8.9470   37.4460   59.4440 C.ar    0  <0>0        0.0082
     24  C15        9.6090   36.3450   59.9590 C.ar    0  <0>0        0.0347
     25  C14        9.7480   35.1950   59.2000 C.ar    0  <0>0        0.0082
     26 Br         10.3270   36.4110   61.7070 Br      0  <0>0       -0.0490
     27  C13        9.2260   35.1400   57.9240 C.ar    0  <0>0        0.0197
@<TRIPOS>BOND
     1     4     3    2
     2     9     5    1
     3     3     5   am
     4     3     2    1
     5     5     6    1
     6     6     7    2
     7     6     8    1
     8     2     1    2
     9     2     8    1
    10     7    21    1
    11     1    10    1
    12    20    19    1
    13    21    27   ar
    14    21    22   ar
    15    10    11   ar
    16    10    15   ar
    17    19    15    1
    18    27    25   ar
    19    22    23   ar
    20    11    12   ar
    21    15    14   ar
    22    25    24   ar
    23    23    24   ar
    24    12    17    1
    25    12    13   ar
    26    14    13   ar
    27    14    16    1
    28    24    26    1
    29    17    18    1
