@<TRIPOS>MOLECULE
ZINC49919997_replica-1.pdb
 25 26 0 0 0
SMALL
GASTEIGER

@<TRIPOS>ATOM
      1  C14       -1.2110   28.6220   52.9640 C.ar    0  <0>0        0.0447
      2  C15       -0.4330   27.7660   53.7380 C.ar    0  <0>0        0.0150
      3  C16       -0.1890   26.4800   53.3120 C.ar    0  <0>0        0.0115
      4  C17       -0.7260   26.0340   52.1010 C.ar    0  <0>0        0.0685
      5  C18       -1.5080   26.8960   51.3260 C.ar    0  <0>0        0.0115
      6  C19       -1.7520   28.1790   51.7620 C.ar    0  <0>0        0.0150
      7  C20       -0.4750   24.6960   51.6540 C.1     0  <0>0        0.1004
      8  N2        -0.2760   23.6360   51.2990 N.1     0  <0>0       -0.1908
      9  N1        -1.4540   29.9220   53.3990 N.pl3   0  <0>0       -0.3326
     10  H19       -0.7120   30.5140   53.5970 H       0  <0>0        0.1468
     11  C13       -2.8310   30.3940   53.5610 C.3     0  <0>0        0.0899
     12  C12       -3.0940   30.7040   55.0350 C.3     0  <0>0        0.0550
     13  C11       -1.7750   30.6650   55.8090 C.3     0  <0>0        0.1344
     14  C8        -1.8380   29.5810   56.8540 C.ar    0  <0>0        0.0043
     15  C7        -2.7310   28.5360   56.7120 C.ar    0  <0>0       -0.0023
     16  C6        -2.7890   27.5400   57.6700 C.ar    0  <0>0       -0.0045
     17  C5        -1.9510   27.5890   58.7680 C.ar    0  <0>0       -0.0225
     18  C10       -1.0610   28.6360   58.9120 C.ar    0  <0>0       -0.0045
     19  C9        -1.0010   29.6310   57.9530 C.ar    0  <0>0       -0.0023
     20  C3        -2.0120   26.5030   59.8120 C.3     0  <0>0        0.0223
     21  C4        -3.0640   26.8650   60.8620 C.3     0  <0>0        0.0047
     22  C2        -2.3890   25.1780   59.1470 C.3     0  <0>0        0.0044
     23  C1        -1.1680   24.6040   58.4260 C.3     0  <0>0        0.0003
     24  O1        -1.5590   31.9270   56.4440 O.3     0  <0>0       -0.3800
     25  H24       -1.0360   32.5480   55.9190 H       0  <0>0        0.2108
@<TRIPOS>BOND
     1     8     7    3
     2     5     6   ar
     3     5     4   ar
     4     7     4    1
     5     6     1   ar
     6     4     3   ar
     7     1     9    1
     8     1     2   ar
     9     3     2   ar
    10     9    11    1
    11     9    10    1
    12    11    12    1
    13    12    13    1
    14    13    24    1
    15    13    14    1
    16    25    24    1
    17    15    14   ar
    18    15    16   ar
    19    14    19   ar
    20    16    17   ar
    21    19    18   ar
    22    23    22    1
    23    17    18   ar
    24    17    20    1
    25    22    20    1
    26    20    21    1
