@<TRIPOS>MOLECULE
ZINC62541898_replica-1.pdb
 20 22 0 0 0
SMALL
GASTEIGER

@<TRIPOS>ATOM
      1  C3        12.9120   32.2110   63.2970 C.ar    0  <0>0       -0.0208
      2  C4        13.5480   33.4120   63.0440 C.ar    0  <0>0       -0.0011
      3  C5        12.9350   34.3750   62.2650 C.ar    0  <0>0        0.0379
      4  C6        11.6760   34.1420   61.7340 C.ar    0  <0>0        0.1519
      5  C7        11.0360   32.9320   61.9920 C.ar    0  <0>0        0.0789
      6  C8        11.6580   31.9660   62.7680 C.ar    0  <0>0        0.0131
      7  N1         9.7570   32.6930   61.4630 N.pl3   0  <0>0       -0.3271
      8  C9         9.2750   33.5960   60.4050 C.3     0  <0>0        0.1360
      9  C10        9.6630   35.0270   60.8040 C.3     0  <0>0        0.2076
     10  O1        11.0830   35.0930   60.9650 O.3     0  <0>0       -0.4717
     11  H10        9.2110   31.9580   61.7830 H       0  <0>0        0.1470
     12  C11        9.2310   35.9870   59.7260 C.ar    0  <0>0        0.0189
     13  C16        8.9480   35.5180   58.4560 C.ar    0  <0>0        0.0001
     14  C15        8.5470   36.3980   57.4680 C.ar    0  <0>0        0.0112
     15  C14        8.4400   37.7490   57.7460 C.ar    0  <0>0        0.0577
     16  C13        8.7290   38.2180   59.0160 C.ar    0  <0>0        0.0112
     17 Cl          7.9430   38.8550   56.5040 Cl      0  <0>0       -0.0822
     18  C12        9.1240   37.3370   60.0040 C.ar    0  <0>0        0.0001
     19  C2        13.5880   31.1650   64.1460 C.3     0  <0>0        0.0264
     20  C1        12.6180   30.0100   64.4000 C.3     0  <0>0        0.0050
@<TRIPOS>BOND
     1    17    15    1
     2    14    15   ar
     3    14    13   ar
     4    15    16   ar
     5    13    12   ar
     6    16    18   ar
     7    12    18   ar
     8    12     9    1
     9     8     9    1
    10     8     7    1
    11     9    10    1
    12    10     4    1
    13     7    11    1
    14     7     5    1
    15     4     5   ar
    16     4     3   ar
    17     5     6   ar
    18     3     2   ar
    19     6     1   ar
    20     2     1   ar
    21     1    19    1
    22    19    20    1
