@<TRIPOS>MOLECULE
ZINC35415106_replica-1.pdb
 21 22 0 0 0
SMALL
GASTEIGER

@<TRIPOS>ATOM
      1  C1        11.0690   31.5240   63.1030 C.ar    0  <0>0        0.0272
      2  C2        10.9910   32.6960   62.3740 C.ar    0  <0>0        0.0383
      3  C3        12.1160   33.4910   62.2190 C.ar    0  <0>0        0.1360
      4  C4        13.3180   33.1080   62.7960 C.ar    0  <0>0        0.0249
      5  C5        13.3910   31.9370   63.5240 C.ar    0  <0>0        0.0237
      6  C6        12.2670   31.1450   63.6770 C.ar    0  <0>0        0.1428
      7  O3        12.0410   34.6430   61.5020 O.3     0  <0>0       -0.4709
      8  C8        11.2890   35.7160   62.0720 C.3     0  <0>0        0.2342
      9  C9        10.1060   36.0240   61.1910 C.ar    0  <0>0        0.0491
     10  C14        9.0810   36.8250   61.6650 C.ar    0  <0>0        0.1396
     11  C13        7.9970   37.1120   60.8530 C.ar    0  <0>0        0.0299
     12  F1         9.1400   37.3310   62.9160 F       0  <0>0       -0.2044
     13  C12        7.9330   36.5890   59.5750 C.ar    0  <0>0        0.0090
     14  C11        8.9550   35.7840   59.1050 C.ar    0  <0>0        0.0345
     15  C10       10.0420   35.5020   59.9140 C.ar    0  <0>0        0.0082
     16 Br          8.8680   35.0710   57.3560 Br      0  <0>0       -0.0490
     17  C7        14.5430   33.9700   62.6290 C.3     0  <0>0        0.0969
     18 Br         15.6100   33.9190   64.2800 Br      0  <0>0       -0.0755
     19  N1        12.3480   29.8910   64.4580 N.pl3   0  <0>0        0.0577
     20  O1        11.8980   28.8650   64.0030 O.2     0  <0>0       -0.1261
     21  O2        12.8650   29.8910   65.5510 O.2     0  <0>0       -0.1261
@<TRIPOS>BOND
     1    16    14    1
     2    14    13   ar
     3    14    15   ar
     4    13    11   ar
     5    15     9   ar
     6    11    10   ar
     7     9    10   ar
     8     9     8    1
     9     7     8    1
    10     7     3    1
    11    10    12    1
    12     3     2   ar
    13     3     4   ar
    14     2     1   ar
    15    17     4    1
    16    17    18    1
    17     4     5   ar
    18     1     6   ar
    19     5     6   ar
    20     6    19    1
    21    20    19    2
    22    19    21    2
