@<TRIPOS>MOLECULE
ZINC01724552_replica-1.pdb
 25 26 0 0 0
SMALL
GASTEIGER

@<TRIPOS>ATOM
      1  C1        -2.4560   30.8330   55.8560 C.3     0  <0>0        0.0331
      2  C2        -1.0520   30.8760   56.4610 C.3     0  <0>0        0.1785
      3  C3        -0.0150   30.6090   55.3670 C.3     0  <0>0        0.1165
      4  N1         0.5170   29.2520   55.5200 N.pl3   0  <0>0       -0.3310
      5  H6         1.1070   29.0430   56.2610 H       0  <0>0        0.1469
      6  C4         0.1770   28.2600   54.5960 C.ar    0  <0>0        0.0447
      7  C9        -0.6390   28.5660   53.5150 C.ar    0  <0>0        0.0152
      8  C8        -0.9740   27.5840   52.6040 C.ar    0  <0>0        0.0127
      9  C7        -0.4960   26.2950   52.7680 C.ar    0  <0>0        0.0578
     10  C6         0.3180   25.9880   53.8440 C.ar    0  <0>0        0.0127
     11 Cl         -0.9180   25.0630   51.6200 Cl      0  <0>0       -0.0822
     12  C5         0.6600   26.9680   54.7550 C.ar    0  <0>0        0.0152
     13  C10       -0.8030   32.2560   57.0720 C.3     0  <0>0        0.1165
     14  N2         0.2080   32.9650   56.2830 N.pl3   0  <0>0       -0.3310
     15  H13        0.2050   32.8930   55.3150 H       0  <0>0        0.1469
     16  C11        1.1760   33.7430   56.9230 C.ar    0  <0>0        0.0447
     17  C16        1.1990   35.1190   56.7370 C.ar    0  <0>0        0.0152
     18  C15        2.1580   35.8840   57.3710 C.ar    0  <0>0        0.0127
     19  C14        3.0950   35.2820   58.1910 C.ar    0  <0>0        0.0578
     20  C13        3.0760   33.9110   58.3780 C.ar    0  <0>0        0.0127
     21 Cl          4.2990   36.2480   58.9860 Cl      0  <0>0       -0.0822
     22  C12        2.1150   33.1410   57.7510 C.ar    0  <0>0        0.0152
     23  N3        -0.9370   29.8520   57.5030 N.pl3   0  <0>0        0.0337
     24  O1        -1.7410   28.9390   57.5490 O.2     0  <0>0       -0.1310
     25  O2        -0.0380   29.9150   58.3230 O.2     0  <0>0       -0.1310
@<TRIPOS>BOND
     1    11     9    1
     2     8     9   ar
     3     8     7   ar
     4     9    10   ar
     5     7     6   ar
     6    10    12   ar
     7     6    12   ar
     8     6     4    1
     9    15    14    1
    10     3     4    1
    11     3     2    1
    12     4     5    1
    13     1     2    1
    14    14    16    1
    15    14    13    1
    16     2    13    1
    17     2    23    1
    18    17    16   ar
    19    17    18   ar
    20    16    22   ar
    21    18    19   ar
    22    23    24    2
    23    23    25    2
    24    22    20   ar
    25    19    20   ar
    26    19    21    1
