@<TRIPOS>MOLECULE
ZINC26463475_replica-1.pdb
 31 32 0 0 0
SMALL
GASTEIGER

@<TRIPOS>ATOM
      1  C5         6.3830   33.7030   59.1200 C.2     0  <0>0        0.0860
      2  C6         5.2600   33.6880   59.8770 C.3     0  <0>0        0.0722
      3  C4         6.2900   33.9350   57.6720 C.2     0  <0>0        0.2556
      4  N1         6.5280   35.1620   57.1690 N.am    0  <0>0       -0.3017
      5  H8         6.8740   35.9700   57.8310 H       0  <0>0        0.1497
      6  O1         5.9960   33.0180   56.9280 O.2     0  <0>0       -0.2691
      7  C2         6.3270   35.4200   55.7420 C.3     0  <0>0        0.0720
      8  C1         4.9730   36.1030   55.5320 C.3     0  <0>0        0.0213
      9  C3         7.4420   36.3320   55.2260 C.3     0  <0>0        0.0213
     10  N2         7.6310   33.4980   59.7170 N.am    0  <0>0       -0.2799
     11  C14        8.3600   34.5510   60.1360 C.2     0  <0>0        0.2494
     12  O3         7.9680   35.6830   59.9250 O.2     0  <0>0       -0.2698
     13  H17        8.0190   32.4760   59.8440 H       0  <0>0        0.1550
     14  C15        9.6350   34.3320   60.8510 C.ar    0  <0>0        0.0536
     15  C20       10.5310   35.3880   61.0230 C.ar    0  <0>0        0.0042
     16  C19       11.7200   35.1770   61.6900 C.ar    0  <0>0       -0.0041
     17  C18       12.0240   33.9230   62.1890 C.ar    0  <0>0       -0.0228
     18  C17       11.1400   32.8720   62.0210 C.ar    0  <0>0       -0.0041
     19  C16        9.9480   33.0700   61.3550 C.ar    0  <0>0        0.0042
     20  C21       13.3250   33.7010   62.9170 C.3     0  <0>0        0.0189
     21  C22       14.4930   34.0210   61.9830 C.3     0  <0>0        0.0044
     22  C23       13.3860   34.6140   64.1430 C.3     0  <0>0        0.0044
     23  C24       13.4150   32.2400   63.3650 C.3     0  <0>0        0.0044
     24  C7         3.9630   34.0250   59.2740 C.ar    0  <0>0       -0.0161
     25  C12        3.0790   33.0090   58.8930 C.ar    0  <0>0       -0.0008
     26  C11        1.8650   33.3300   58.3300 C.ar    0  <0>0        0.0366
     27  C10        1.5160   34.6610   58.1380 C.ar    0  <0>0        0.1387
     28  C9         2.3900   35.6750   58.5130 C.ar    0  <0>0        0.0366
     29  C8         3.6050   35.3640   59.0820 C.ar    0  <0>0       -0.0008
     30  O2         0.3170   34.9740   57.5820 O.3     0  <0>0       -0.4714
     31  C13        0.3130   35.9850   56.5730 C.3     0  <0>0        0.2525
@<TRIPOS>BOND
     1     9     7    1
     2     8     7    1
     3     7     4    1
     4    31    30    1
     5     6     3    2
     6     4     3   am
     7     4     5    1
     8    30    27    1
     9     3     1    1
    10    27    26   ar
    11    27    28   ar
    12    26    25   ar
    13    28    29   ar
    14    25    24   ar
    15    29    24   ar
    16     1    10    2
    17     1     2    1
    18    24     2    1
    19    10    13    1
    20    10    11   am
    21    12    11    2
    22    11    14    1
    23    14    15   ar
    24    14    19   ar
    25    15    16   ar
    26    19    18   ar
    27    16    17   ar
    28    21    20    1
    29    18    17   ar
    30    17    20    1
    31    20    23    1
    32    20    22    1
