@<TRIPOS>MOLECULE
ZINC46693578_replica-1.pdb
 27 27 0 0 0
SMALL
GASTEIGER

@<TRIPOS>ATOM
      1  C10        8.2640   37.1420   58.7130 C.3     0  <0>0        0.0956
      2  C11        8.2280   38.6200   59.1050 C.3     0  <0>0        0.0262
      3  N2         6.9390   36.5510   58.9160 N.am    0  <0>0       -0.2866
      4  C9         6.3550   35.8490   57.9250 C.2     0  <0>0        0.3041
      5  N1         5.1360   35.3060   58.1110 N.am    0  <0>0       -0.2642
      6  O1         6.9280   35.7060   56.8620 O.2     0  <0>0       -0.2526
      7  H20        6.4810   36.6650   59.7640 H       0  <0>0        0.1512
      8  C6         4.5010   34.5420   57.0340 C.3     0  <0>0        0.0949
      9  C3         3.5140   35.4400   56.2850 C.3     0  <0>0        0.0199
     10  C2         3.8970   35.4960   54.8060 C.3     0  <0>0        0.0017
     11  C1         4.7170   34.2560   54.4440 C.3     0  <0>0        0.0001
     12  C4         2.1000   34.8730   56.4250 C.3     0  <0>0        0.0017
     13  C5         1.2990   35.7340   57.4030 C.3     0  <0>0        0.0001
     14  C7         4.4450   35.4780   59.3910 C.3     0  <0>0        0.0950
     15  C8         4.1020   34.1050   59.9750 C.3     0  <0>0        0.0233
     16  C12        9.2730   36.4190   59.5680 C.ar    0  <0>0       -0.0044
     17  C17        9.6640   36.9590   60.7790 C.ar    0  <0>0       -0.0014
     18  C16       10.5840   36.2970   61.5670 C.ar    0  <0>0        0.0144
     19  C15       11.1250   35.0920   61.1380 C.ar    0  <0>0        0.0503
     20  C14       10.7340   34.5550   59.9180 C.ar    0  <0>0        0.0144
     21  C13        9.8090   35.2200   59.1360 C.ar    0  <0>0       -0.0014
     22  N3        12.0610   34.4200   61.9310 N.am    0  <0>0       -0.2839
     23  C18       11.7640   33.2100   62.4460 C.2     0  <0>0        0.2261
     24  O2        10.7240   32.6620   62.1470 O.2     0  <0>0       -0.2748
     25  H28       12.9240   34.8250   62.1100 H       0  <0>0        0.1549
     26  C19       12.7240   32.5380   63.3930 C.3     0  <0>0        0.0854
     27  C20       12.7600   31.0360   63.1020 C.3     0  <0>0        0.0101
@<TRIPOS>BOND
     1    11    10    1
     2    10     9    1
     3     9    12    1
     4     9     8    1
     5    12    13    1
     6     6     4    2
     7     8     5    1
     8     4     5   am
     9     4     3   am
    10     5    14    1
    11     1     3    1
    12     1     2    1
    13     1    16    1
    14     3     7    1
    15    21    16   ar
    16    21    20   ar
    17    14    15    1
    18    16    17   ar
    19    20    19   ar
    20    17    18   ar
    21    19    18   ar
    22    19    22    1
    23    22    25    1
    24    22    23   am
    25    24    23    2
    26    23    26    1
    27    27    26    1
