@<TRIPOS>MOLECULE
ZINC09344254_replica-1.pdb
 26 29 0 0 0
SMALL
GASTEIGER

@<TRIPOS>ATOM
      1  N1        -1.0940   28.5330   58.0840 N.pl3   0  <0>0       -0.2657
      2  C7        -0.7500   29.4780   59.1290 C.3     0  <0>0        0.1266
      3  C8        -0.1010   29.0710   60.4360 C.3     0  <0>0        0.1729
      4  S1         0.9290   30.5680   60.7960 S.O2    0  <0>0       -0.0063
      5  O1         2.2920   30.1800   60.8980 O.2     0  <0>0       -0.1729
      6  O2         0.3270   31.3020   61.8530 O.2     0  <0>0       -0.1729
      7  C9         0.6760   31.4840   59.2010 C.3     0  <0>0        0.1768
      8  C10        0.3110   30.2980   58.3180 C.3     0  <0>0        0.1488
      9  N2        -0.3780   30.4210   57.0600 N.2     0  <0>0       -0.2491
     10  C11       -1.1580   29.3550   56.9470 C.2     0  <0>0        0.1586
     11  S2        -2.1570   29.0100   55.5370 S.3     0  <0>0       -0.0752
     12  C12       -0.9640   29.3420   54.2170 C.3     0  <0>0        0.0928
     13  C13       -1.0730   28.2730   53.1600 C.ar    0  <0>0        0.0103
     14  C18       -0.3250   27.1140   53.2680 C.ar    0  <0>0        0.0553
     15  C17       -0.4260   26.1340   52.2980 C.ar    0  <0>0        0.0112
     16 Cl          0.7410   26.8920   54.6210 Cl      0  <0>0       -0.0825
     17  C16       -1.2740   26.3100   51.2210 C.ar    0  <0>0        0.0017
     18  C15       -2.0220   27.4670   51.1130 C.ar    0  <0>0        0.0112
     19  C14       -1.9250   28.4470   52.0860 C.ar    0  <0>0        0.0553
     20 Cl         -2.8710   29.8980   51.9530 Cl      0  <0>0       -0.0825
     21  C4        -1.3060   27.1540   58.1830 C.ar    0  <0>0        0.0531
     22  C3        -0.2640   26.2690   57.9370 C.ar    0  <0>0        0.0149
     23  C2        -0.4770   24.9090   58.0360 C.ar    0  <0>0        0.0013
     24  C1        -1.7260   24.4260   58.3800 C.ar    0  <0>0        0.0001
     25  C6        -2.7670   25.3050   58.6270 C.ar    0  <0>0        0.0013
     26  C5        -2.5580   26.6660   58.5350 C.ar    0  <0>0        0.0149
@<TRIPOS>BOND
     1    18    17   ar
     2    18    19   ar
     3    17    15   ar
     4    20    19    1
     5    19    13   ar
     6    15    14   ar
     7    13    14   ar
     8    13    12    1
     9    14    16    1
    10    12    11    1
    11    11    10    1
    12    10     9    2
    13    10     1    1
    14     9     8    1
    15    22    23   ar
    16    22    21   ar
    17    23    24   ar
    18     1    21    1
    19     1     2    1
    20    21    26   ar
    21     8     2    1
    22     8     7    1
    23    24    25   ar
    24    26    25   ar
    25     2     3    1
    26     7     4    1
    27     3     4    1
    28     4     5    2
    29     4     6    2
