@<TRIPOS>MOLECULE
ZINC29963210_replica-1.pdb
 29 32 0 0 0
SMALL
GASTEIGER

@<TRIPOS>ATOM
      1  C10       -1.1820   29.8780   56.6180 C.3     0  <0>0       -0.0082
      2  C7        -1.0570   29.1090   55.3270 C.ar    0  <0>0       -0.0376
      3  C6        -0.2050   28.0230   55.2510 C.ar    0  <0>0       -0.0063
      4  C5        -0.0910   27.3170   54.0680 C.ar    0  <0>0       -0.0047
      5  C4        -0.8280   27.6970   52.9620 C.ar    0  <0>0       -0.0225
      6  C9        -1.6800   28.7840   53.0390 C.ar    0  <0>0       -0.0047
      7  C8        -1.7980   29.4850   54.2230 C.ar    0  <0>0       -0.0063
      8  C2        -0.7040   26.9270   51.6730 C.3     0  <0>0        0.0224
      9  C1        -0.6820   25.4270   51.9740 C.3     0  <0>0        0.0047
     10  C3        -1.8970   27.2490   50.7690 C.3     0  <0>0        0.0047
     11  C11       -1.5650   28.9350   57.7290 C.ar    0  <0>0       -0.0086
     12  S1        -0.8900   28.8060   59.3770 S.2     0  <0>0       -0.0925
     13  C14       -1.9150   27.4690   59.9650 C.ar    0  <0>0        0.0351
     14  C13       -2.6870   27.2090   58.8820 C.ar    0  <0>0        0.0071
     15  C12       -2.5070   27.9600   57.7360 C.ar    0  <0>0        0.0010
     16  N1         0.1040   30.5130   56.9350 N.4     0  <0>0        0.3973
     17  H16        0.2080   30.6060   58.0260 H       0  <0>0       -0.0827
     18  H22        0.9240   29.8970   56.5390 H       0  <0>0       -0.0827
     19  C15        0.1900   31.8540   56.3390 C.3     0  <0>0        0.0244
     20  C16        0.7820   32.8110   57.3400 C.2     0  <0>0        0.2727
     21  O1         0.1080   33.5600   58.2180 O.2     0  <0>0       -0.3178
     22  N3         0.8790   34.2220   58.8800 N.2     0  <0>0       -0.0073
     23  C17        2.1110   33.9790   58.5100 C.1     0  <0>0        0.1272
     24  N2         2.0550   33.0700   57.5100 N.2     0  <0>0       -0.3149
     25  C18        3.3370   34.5900   59.0770 C.ar    0  <0>0        0.0840
     26  C21        3.9840   34.0120   60.1300 C.ar    0  <0>0        0.0466
     27  S2         5.3160   35.0860   60.4020 S.2     0  <0>0       -0.0852
     28  C20        4.9790   36.2700   59.1120 C.ar    0  <0>0        0.0362
     29  C19        3.8580   35.7680   58.5460 C.ar    0  <0>0        0.0186
@<TRIPOS>BOND
     1    10     8    1
     2     8     9    1
     3     8     5    1
     4     5     6   ar
     5     5     4   ar
     6     6     7   ar
     7     4     3   ar
     8     7     2   ar
     9     3     2   ar
    10     2     1    1
    11    19    16    1
    12    19    20    1
    13    18    16    1
    14     1    16    1
    15     1    11    1
    16    16    17    1
    17    20    24    2
    18    20    21    1
    19    24    23    2
    20    11    15   ar
    21    11    12   ar
    22    15    14   ar
    23    21    22    1
    24    23    22    2
    25    23    25    1
    26    29    25   ar
    27    29    28   ar
    28    14    13   ar
    29    25    26   ar
    30    28    27   ar
    31    12    13   ar
    32    26    27   ar
