@<TRIPOS>MOLECULE
ZINC02502976_replica-1.pdb
 30 33 0 0 0
SMALL
GASTEIGER

@<TRIPOS>ATOM
      1  N1         6.6190   35.3990   60.4390 N.3     0  <0>0       -0.1304
      2  C8         6.9160   36.8430   60.5250 C.3     0  <0>0        0.1746
      3  N2         7.9680   37.0460   61.5180 N.pl3   0  <0>0       -0.3160
      4  C9         9.1600   36.3270   61.5280 C.ar    0  <0>0        0.0646
      5  C10       10.2660   36.8680   62.1830 C.ar    0  <0>0        0.0157
      6  C11       11.4560   36.1730   62.2250 C.ar    0  <0>0        0.0013
      7  C12       11.5620   34.9340   61.6200 C.ar    0  <0>0        0.0015
      8  C13       10.4710   34.3940   60.9610 C.ar    0  <0>0        0.0212
      9  C14        9.2820   35.0900   60.9100 C.ar    0  <0>0        0.1353
     10  S1         7.9030   34.4140   60.0350 S.O2    0  <0>0        0.0664
     11  O1         8.1550   34.6080   58.6490 O.2     0  <0>0       -0.1527
     12  O2         7.6420   33.1350   60.5960 O.2     0  <0>0       -0.1527
     13  H9         7.8280   37.7160   62.2050 H       0  <0>0        0.1484
     14  C15        7.3840   37.3430   59.1820 C.ar    0  <0>0        0.0124
     15  C20        6.7960   36.8690   58.0260 C.ar    0  <0>0        0.0026
     16  C19        7.2250   37.3270   56.7930 C.ar    0  <0>0        0.0712
     17  C18        8.2430   38.2600   56.7200 C.ar    0  <0>0        0.0038
     18  C17        8.8350   38.7300   57.8770 C.ar    0  <0>0       -0.0003
     19  C16        8.4020   38.2760   59.1090 C.ar    0  <0>0       -0.0013
     20  C21        6.5840   36.8100   55.5310 C.3     0  <0>0        0.4186
     21  F1         5.4670   37.5920   55.2220 F       0  <0>0       -0.1659
     22  F2         7.5050   36.8760   54.4800 F       0  <0>0       -0.1659
     23  F3         6.1860   35.4820   55.7200 F       0  <0>0       -0.1659
     24  C7         5.2780   34.8640   60.6930 C.3     0  <0>0        0.1242
     25  C4         4.4930   34.8430   59.4060 C.ar    0  <0>0       -0.0044
     26  C3         3.6850   35.9130   59.0710 C.ar    0  <0>0       -0.0029
     27  C2         2.9650   35.8930   57.8920 C.ar    0  <0>0       -0.0003
     28  C1         3.0540   34.8030   57.0460 C.ar    0  <0>0       -0.0000
     29  C6         3.8620   33.7330   57.3810 C.ar    0  <0>0       -0.0003
     30  C5         4.5860   33.7550   58.5590 C.ar    0  <0>0       -0.0029
@<TRIPOS>BOND
     1    22    20    1
     2    21    20    1
     3    20    23    1
     4    20    16    1
     5    17    16   ar
     6    17    18   ar
     7    16    15   ar
     8    28    29   ar
     9    28    27   ar
    10    29    30   ar
    11    18    19   ar
    12    27    26   ar
    13    15    14   ar
    14    30    25   ar
    15    11    10    2
    16    26    25   ar
    17    19    14   ar
    18    14     2    1
    19    25    24    1
    20    10     1    1
    21    10    12    2
    22    10     9    1
    23     1     2    1
    24     1    24    1
    25     2     3    1
    26     9     8   ar
    27     9     4   ar
    28     8     7   ar
    29     3     4    1
    30     3    13    1
    31     4     5   ar
    32     7     6   ar
    33     5     6   ar
