@<TRIPOS>MOLECULE
ZINC20882812_replica-1.pdb
 37 41 0 0 0
SMALL
GASTEIGER

@<TRIPOS>ATOM
      1  C10        1.0300   31.8730   59.7950 C.3     0  <0>0        0.1186
      2  C11        0.5560   31.1480   58.5600 C.2     0  <0>0        0.0436
      3  C12       -0.0920   31.7020   57.5200 C.2     0  <0>0        0.0262
      4  C13       -0.5260   30.8500   56.3390 C.3     0  <0>0        0.0458
      5  C14        0.4650   29.7070   56.1260 C.3     0  <0>0        0.0356
      6  C15        0.4920   28.8680   57.4100 C.3     0  <0>0        0.0736
      7  C16        0.8550   29.7640   58.5570 C.2     0  <0>0        0.1722
      8  O2         1.4250   29.2860   59.5170 O.2     0  <0>0       -0.2916
      9  N2        -0.4260   33.0140   57.4290 N.pl3   0  <0>0       -0.3150
     10  C25        0.4260   34.0740   57.7120 C.ar    0  <0>0        0.0614
     11  C26        0.8430   34.9700   56.7420 C.ar    0  <0>0        0.0158
     12  C27        1.6530   36.0320   57.1030 C.ar    0  <0>0        0.0014
     13  C28        2.0420   36.1980   58.4200 C.ar    0  <0>0        0.0013
     14  C29        1.6410   35.2930   59.3870 C.ar    0  <0>0        0.0156
     15  C30        0.8480   34.2160   59.0250 C.ar    0  <0>0        0.0586
     16  N3         0.5140   33.2180   59.9390 N.pl3   0  <0>0       -0.3262
     17  H28       -1.4390   33.3030   57.1110 H       0  <0>0        0.1520
     18  H33       -0.1510   33.4640   60.7800 H       0  <0>0        0.1474
     19  C7         2.5350   31.9410   59.7620 C.ar    0  <0>0       -0.0001
     20  C6         3.2500   31.9950   60.9450 C.ar    0  <0>0        0.0008
     21  C5         4.6290   32.0560   60.9180 C.ar    0  <0>0        0.0366
     22  C4         5.2980   32.0660   59.7020 C.ar    0  <0>0        0.1384
     23  C9         4.5790   32.0120   58.5170 C.ar    0  <0>0        0.0366
     24  C8         3.1990   31.9500   58.5490 C.ar    0  <0>0        0.0008
     25  O1         6.6560   32.1210   59.6730 O.3     0  <0>0       -0.4792
     26  C2         7.2980   31.6800   58.4750 C.3     0  <0>0        0.1661
     27  C1         8.5170   32.5620   58.1960 C.3     0  <0>0        0.0472
     28  C3         7.7460   30.2270   58.6410 C.3     0  <0>0        0.0472
     29  C17        0.0200   28.8530   54.9670 C.ar    0  <0>0       -0.0216
     30  C22        0.4920   27.5600   54.8420 C.ar    0  <0>0       -0.0030
     31  C21        0.0870   26.7750   53.7810 C.ar    0  <0>0        0.0142
     32  C20       -0.7960   27.2860   52.8370 C.ar    0  <0>0        0.0479
     33  C19       -1.2680   28.5860   52.9660 C.ar    0  <0>0        0.0142
     34  C18       -0.8620   29.3640   54.0330 C.ar    0  <0>0       -0.0030
     35  N1        -1.2070   26.4950   51.7620 N.pl3   0  <0>0       -0.3041
     36  C23       -2.0470   27.0700   50.7090 C.3     0  <0>0        0.1122
     37  C24       -0.7950   25.0910   51.6860 C.3     0  <0>0        0.1122
@<TRIPOS>BOND
     1    36    35    1
     2    37    35    1
     3    35    32    1
     4    32    33   ar
     5    32    31   ar
     6    33    34   ar
     7    31    30   ar
     8    34    29   ar
     9    30    29   ar
    10    29     5    1
    11     5     4    1
    12     5     6    1
    13     4     3    1
    14    11    12   ar
    15    11    10   ar
    16    12    13   ar
    17    17     9    1
    18     6     7    1
    19     9     3    1
    20     9    10    1
    21     3     2    2
    22    10    15   ar
    23    27    26    1
    24    13    14   ar
    25    26    28    1
    26    26    25    1
    27    23    24   ar
    28    23    22   ar
    29    24    19   ar
    30     7     2    1
    31     7     8    2
    32     2     1    1
    33    15    14   ar
    34    15    16    1
    35    25    22    1
    36    22    21   ar
    37    19     1    1
    38    19    20   ar
    39     1    16    1
    40    16    18    1
    41    21    20   ar
