@<TRIPOS>MOLECULE
ZINC37188376_replica-1.pdb
 21 22 0 0 0
SMALL
GASTEIGER

@<TRIPOS>ATOM
      1  C9        -0.8200   29.6170   54.6410 C.3     0  <0>0        0.0949
      2  C10       -1.5710   30.7010   53.8670 C.3     0  <0>0        0.0262
      3  C5        -0.7280   28.3700   53.7990 C.ar    0  <0>0        0.0294
      4  C4        -1.3560   28.3190   52.5690 C.ar    0  <0>0       -0.0000
      5  C3        -1.2700   27.1770   51.7960 C.ar    0  <0>0       -0.0043
      6  C2        -0.5580   26.0830   52.2500 C.ar    0  <0>0       -0.0189
      7  C1        -0.4670   24.8390   51.4040 C.3     0  <0>0        0.0311
      8  C7         0.0670   26.1270   53.4810 C.ar    0  <0>0        0.0324
      9  C6        -0.0110   27.2740   54.2570 C.ar    0  <0>0        0.1359
     10  O1         0.6070   27.3230   55.4650 O.3     0  <0>0       -0.4717
     11  C8         0.1070   26.4570   56.4850 C.3     0  <0>0        0.2525
     12  N1         0.5290   30.0910   54.9620 N.pl3   0  <0>0       -0.3305
     13  H14        1.2720   29.8710   54.3780 H       0  <0>0        0.1471
     14  C11        0.7450   30.8600   56.1080 C.ar    0  <0>0        0.0453
     15  C16        1.2600   32.1430   55.9960 C.ar    0  <0>0        0.0204
     16  C15        1.4680   32.9060   57.1370 C.ar    0  <0>0        0.0265
     17  C14        1.1710   32.3780   58.3880 C.ar    0  <0>0        0.0062
     18  C13        0.6650   31.0970   58.4960 C.ar    0  <0>0        0.0018
     19  C12        0.4520   30.3370   57.3610 C.ar    0  <0>0        0.0143
     20  S1         2.1140   34.5400   57.0000 S.3     0  <0>0       -0.1127
     21  C17        0.6390   35.5940   56.9590 C.3     0  <0>0        0.0742
@<TRIPOS>BOND
     1     7     6    1
     2     5     6   ar
     3     5     4   ar
     4     6     8   ar
     5     4     3   ar
     6     8     9   ar
     7     3     9   ar
     8     3     1    1
     9     2     1    1
    10     9    10    1
    11    13    12    1
    12     1    12    1
    13    12    14    1
    14    10    11    1
    15    15    14   ar
    16    15    16   ar
    17    14    19   ar
    18    21    20    1
    19    20    16    1
    20    16    17   ar
    21    19    18   ar
    22    17    18   ar
