@<TRIPOS>MOLECULE
ZINC39037771_replica-1.pdb
 28 31 0 0 0
SMALL
GASTEIGER

@<TRIPOS>ATOM
      1  C10        1.2850   32.0740   56.9010 C.2     0  <0>0        0.2398
      2  O2         0.7530   31.3730   57.7340 O.2     0  <0>0       -0.2737
      3  N1         0.9340   31.9670   55.6050 N.am    0  <0>0       -0.2537
      4  H14        1.3600   32.5280   54.9390 H       0  <0>0        0.1577
      5  C8         2.3420   33.0660   57.3160 C.3     0  <0>0        0.1474
      6  S1         4.0350   32.3970   57.0410 S.3     0  <0>0       -0.1038
      7  C6         4.8170   33.8790   56.4430 C.ar    0  <0>0        0.0259
      8  C5         3.7950   34.7790   56.1520 C.ar    0  <0>0       -0.0002
      9  C7         6.1490   34.2030   56.2640 C.ar    0  <0>0        0.0428
     10  C4         4.1680   36.0450   55.6960 C.ar    0  <0>0        0.0006
     11  C9         2.3860   34.2770   56.3570 C.3     0  <0>0        0.1215
     12  C3         5.4920   36.3810   55.5290 C.ar    0  <0>0        0.0366
     13  C2         6.4980   35.4670   55.8090 C.ar    0  <0>0        0.1392
     14 Cl          1.3810   35.6070   57.0440 Cl      0  <0>0       -0.1087
     15  O1         7.8030   35.8010   55.6350 O.3     0  <0>0       -0.4714
     16  C1         8.2540   37.0040   56.2610 C.3     0  <0>0        0.2525
     17  C11       -0.0410   31.0520   55.2230 C.2     0  <0>0        0.2130
     18  S2        -1.7880   31.0390   55.5990 S.3     0  <0>0       -0.0593
     19  C13       -2.1950   29.5410   54.7110 C.3     0  <0>0        0.1247
     20  C12       -0.9660   29.1940   54.2220 C.2     0  <0>0        0.1225
     21  N2         0.0800   29.9600   54.4920 N.2     0  <0>0       -0.3842
     22  C14       -0.8060   27.9710   53.3980 C.ar    0  <0>0        0.0265
     23  C19       -0.0840   26.8860   53.8910 C.ar    0  <0>0        0.0045
     24  C18        0.0580   25.7490   53.1230 C.ar    0  <0>0        0.0297
     25  C17       -0.5050   25.6890   51.8580 C.ar    0  <0>0        0.1401
     26  C16       -1.2190   26.7680   51.3620 C.ar    0  <0>0        0.0297
     27  F1        -0.3580   24.5760   51.1080 F       0  <0>0       -0.2042
     28  C15       -1.3710   27.9070   52.1250 C.ar    0  <0>0        0.0045
@<TRIPOS>BOND
     1    27    25    1
     2    26    25   ar
     3    26    28   ar
     4    25    24   ar
     5    28    22   ar
     6    24    23   ar
     7    22    23   ar
     8    22    20    1
     9    20    21    2
    10    20    19    1
    11    21    17    2
    12    19    18    1
    13     4     3    1
    14    17    18    1
    15    17     3    1
    16    12    10   ar
    17    12    13   ar
    18     3     1   am
    19    15    13    1
    20    15    16    1
    21    10     8   ar
    22    13     9   ar
    23     8    11    1
    24     8     7   ar
    25     9     7   ar
    26    11    14    1
    27    11     5    1
    28     7     6    1
    29     1     5    1
    30     1     2    2
    31     6     5    1
