@<TRIPOS>MOLECULE
ZINC40231311_replica-1.pdb
 25 27 0 0 0
SMALL
GASTEIGER

@<TRIPOS>ATOM
      1  C12        5.3540   35.9210   58.6410 C.3     0  <0>0        0.0973
      2  C11        6.1210   36.8910   59.5400 C.3     0  <0>0        0.0688
      3  C10        7.2130   37.5870   58.7240 C.3     0  <0>0        0.2072
      4  O1         8.2530   38.0280   59.6010 O.3     0  <0>0       -0.4754
      5  C7         9.0990   37.0790   60.0810 C.ar    0  <0>0        0.1385
      6  C6         9.5360   36.0550   59.2540 C.ar    0  <0>0        0.0366
      7  C5        10.3960   35.0910   59.7460 C.ar    0  <0>0       -0.0012
      8  C4        10.8210   35.1480   61.0600 C.ar    0  <0>0       -0.0223
      9  C9        10.3810   36.1640   61.8880 C.ar    0  <0>0       -0.0012
     10  C8         9.5250   37.1330   61.4010 C.ar    0  <0>0        0.0366
     11  C2        11.7590   34.0960   61.5930 C.3     0  <0>0        0.0224
     12  C1        12.5960   34.6870   62.7290 C.3     0  <0>0        0.0047
     13  C3        10.9480   32.9100   62.1210 C.3     0  <0>0        0.0047
     14  N1         6.2830   34.9360   58.0800 N.pl3   0  <0>0       -0.2788
     15  C19        6.6770   34.8480   56.7810 C.2     0  <0>0        0.1596
     16  N2         7.5100   33.8600   56.6340 N.2     0  <0>0       -0.3938
     17  C18        7.7000   33.2400   57.8260 C.2     0  <0>0        0.1324
     18  C13        6.9150   33.9220   58.7720 C.3     0  <0>0        0.1496
     19  C17        8.4690   32.1460   58.2330 C.2     0  <0>0        0.0296
     20  C14        6.9110   33.5050   60.0950 C.2     0  <0>0        0.0004
     21  C15        7.6770   32.4230   60.4740 C.2     0  <0>0       -0.0024
     22  C16        8.4520   31.7500   59.5400 C.2     0  <0>0        0.0021
     23  C20        6.2170   35.7630   55.6760 C.3     0  <0>0        0.0669
     24  C21        7.4340   36.4050   55.0070 C.3     0  <0>0        0.0088
     25  C22        5.4320   34.9560   54.6390 C.3     0  <0>0        0.0088
@<TRIPOS>BOND
     1    25    23    1
     2    24    23    1
     3    23    15    1
     4    16    15    2
     5    16    17    2
     6    15    14    1
     7    17    19    1
     8    17    18    1
     9    14     1    1
    10    14    18    1
    11    19    22    2
    12     1     2    1
    13     3     2    1
    14     3     4    1
    15    18    20    1
    16     6     7   ar
    17     6     5   ar
    18    22    21    1
    19     4     5    1
    20     7     8   ar
    21     5    10   ar
    22    20    21    2
    23     8    11    1
    24     8     9   ar
    25    10     9   ar
    26    11    13    1
    27    11    12    1
