@<TRIPOS>MOLECULE
ZINC39852050_replica-1.pdb
 29 33 0 0 0
SMALL
GASTEIGER

@<TRIPOS>ATOM
      1  C6         1.8130   31.8690   56.8430 C.2     0  <0>0        0.2860
      2  O2         1.3400   31.1200   57.6770 O.2     0  <0>0       -0.2664
      3  N1         1.3140   31.8840   55.5910 N.am    0  <0>0       -0.2484
      4  H4         1.6900   32.4800   54.9260 H       0  <0>0        0.1581
      5  C5         2.9240   32.7570   57.1990 C.ar    0  <0>0        0.1940
      6  C2         4.0900   32.3800   57.8060 C.ar    0  <0>0        0.0174
      7  C1         4.4750   30.9850   58.2290 C.3     0  <0>0        0.0342
      8  C3         4.8570   33.5370   57.9520 C.ar    0  <0>0        0.0251
      9  C19        6.2200   33.6970   58.5470 C.3     0  <0>0        0.0990
     10  C4         4.1340   34.5680   57.4380 C.ar    0  <0>0        0.1203
     11  C18        6.8130   35.0500   58.1860 C.3     0  <0>0        0.0248
     12  S3         6.1690   33.4760   60.3590 S.3     0  <0>0       -0.1266
     13  S2         7.3260   32.3440   58.0050 S.3     0  <0>0       -0.1266
     14  C17        5.7670   36.1470   58.4190 C.3     0  <0>0        0.0100
     15  C16        4.6230   35.9960   57.4130 C.3     0  <0>0        0.0643
     16  C21        7.2290   32.0190   60.6780 C.3     0  <0>0        0.0703
     17  C20        8.2720   31.9670   59.5330 C.3     0  <0>0        0.0703
     18  O1         2.9720   34.0900   56.9890 O.2     0  <0>0       -0.4538
     19  C7         0.2620   31.0430   55.2530 C.2     0  <0>0        0.2133
     20  S1        -1.4480   31.1080   55.7680 S.3     0  <0>0       -0.0593
     21  C9        -2.0110   29.6770   54.8540 C.3     0  <0>0        0.1247
     22  C8        -0.8470   29.2860   54.2540 C.2     0  <0>0        0.1225
     23  N2         0.2600   29.9800   54.4690 N.2     0  <0>0       -0.3842
     24  C10       -0.8240   28.0960   53.3690 C.ar    0  <0>0        0.0264
     25  C15       -1.4690   28.1310   52.1340 C.ar    0  <0>0        0.0022
     26  C14       -1.4390   27.0220   51.3130 C.ar    0  <0>0        0.0001
     27  C13       -0.7820   25.8740   51.7170 C.ar    0  <0>0        0.0000
     28  C12       -0.1460   25.8330   52.9450 C.ar    0  <0>0        0.0001
     29  C11       -0.1630   26.9370   53.7730 C.ar    0  <0>0        0.0022
@<TRIPOS>BOND
     1    26    27   ar
     2    26    25   ar
     3    27    28   ar
     4    25    24   ar
     5    28    29   ar
     6    24    29   ar
     7    24    22    1
     8    22    23    2
     9    22    21    1
    10    23    19    2
    11    21    20    1
    12     4     3    1
    13    19     3    1
    14    19    20    1
    15     3     1   am
    16     1     5    1
    17     1     2    2
    18    18     5   ar
    19    18    10   ar
    20     5     6   ar
    21    15    10    1
    22    15    14    1
    23    10     8   ar
    24     6     8   ar
    25     6     7    1
    26     8     9    1
    27    13     9    1
    28    13    17    1
    29    11    14    1
    30    11     9    1
    31     9    12    1
    32    17    16    1
    33    12    16    1
