@<TRIPOS>MOLECULE
ZINC32188358_replica-1.pdb
 24 25 0 0 0
SMALL
GASTEIGER

@<TRIPOS>ATOM
      1  C11       -0.0150   31.0570   55.7600 C.3     0  <0>0        0.1735
      2  C10       -1.4060   30.5190   55.4190 C.3     0  <0>0        0.2361
      3  O1        -1.5560   29.2080   55.9670 O.3     0  <0>0       -0.4728
      4  C8        -0.9160   28.1950   55.3260 C.ar    0  <0>0        0.1384
      5  C7        -0.1160   27.3150   56.0410 C.ar    0  <0>0        0.0369
      6  C6         0.5340   26.2860   55.3860 C.ar    0  <0>0        0.0028
      7  C5         0.3870   26.1320   54.0210 C.ar    0  <0>0       -0.0041
      8  C4        -0.4100   27.0070   53.3050 C.ar    0  <0>0       -0.0195
      9  C9        -1.0660   28.0350   53.9550 C.ar    0  <0>0        0.0326
     10  C2        -0.5670   26.8370   51.8160 C.3     0  <0>0        0.0225
     11  C1        -0.9700   25.3950   51.5060 C.3     0  <0>0        0.0047
     12  C3        -1.6520   27.7900   51.3070 C.3     0  <0>0        0.0047
     13  C12       -0.1370   32.1510   56.8230 C.3     0  <0>0        0.1206
     14  N1         0.2550   33.4390   56.2460 N.pl3   0  <0>0       -0.3289
     15  H17       -0.1650   33.7600   55.2810 H       0  <0>0        0.1469
     16  C13        1.1620   34.2610   56.9210 C.ar    0  <0>0        0.0725
     17  C18        2.4900   34.3170   56.5120 C.ar    0  <0>0        0.1531
     18  C17        3.3840   35.1320   57.1830 C.ar    0  <0>0        0.0309
     19  F1         2.9060   33.5780   55.4610 F       0  <0>0       -0.2029
     20  C16        2.9570   35.8900   58.2580 C.ar    0  <0>0        0.0024
     21  C15        1.6370   35.8360   58.6660 C.ar    0  <0>0        0.0014
     22  C14        0.7380   35.0270   57.9980 C.ar    0  <0>0        0.0166
     23  O2         0.5860   31.6020   54.5840 O.3     0  <0>0       -0.3791
     24  H22        0.9270   30.9340   53.7800 H       0  <0>0        0.2106
@<TRIPOS>BOND
     1    12    10    1
     2    11    10    1
     3    10     8    1
     4     8     9   ar
     5     8     7   ar
     6    24    23    1
     7     9     4   ar
     8     7     6   ar
     9    23     1    1
    10    15    14    1
    11     4     3    1
    12     4     5   ar
    13     6     5   ar
    14     2     1    1
    15     2     3    1
    16    19    17    1
    17     1    13    1
    18    14    13    1
    19    14    16    1
    20    17    16   ar
    21    17    18   ar
    22    16    22   ar
    23    18    20   ar
    24    22    21   ar
    25    20    21   ar
