@<TRIPOS>MOLECULE
ZINC11957780_replica-1.pdb
 25 27 0 0 0
SMALL
GASTEIGER

@<TRIPOS>ATOM
      1  C1        10.5750   35.5550   61.1510 C.ar    0  <0>0        0.0000
      2  C2        10.0180   36.8280   61.2360 C.ar    0  <0>0        0.0000
      3  C3         9.2490   37.3240   60.2250 C.ar    0  <0>0        0.0001
      4  C4         9.0140   36.5420   59.0870 C.ar    0  <0>0        0.0045
      5  C5         9.5790   35.2470   58.9990 C.ar    0  <0>0        0.0002
      6  C6        10.3670   34.7690   60.0590 C.ar    0  <0>0        0.0000
      7  C7         9.3430   34.4640   57.8550 C.ar    0  <0>0        0.0031
      8  C8         8.5740   34.9330   56.8380 C.ar    0  <0>0        0.0370
      9  C9         8.0010   36.2050   56.8760 C.ar    0  <0>0        0.1402
     10  C10        8.1960   37.0340   57.9800 C.ar    0  <0>0        0.0564
     11  O2         7.2450   36.6350   55.8350 O.3     0  <0>0       -0.4714
     12  C12        6.1910   35.7740   55.3990 C.3     0  <0>0        0.2525
     13  C13        4.8920   36.1550   56.1140 C.3     0  <0>0        0.2525
     14  O3         4.4500   35.0570   56.9150 O.3     0  <0>0       -0.4706
     15  C14        5.0230   34.9160   58.1390 C.ar    0  <0>0        0.1492
     16  C19        5.6760   33.7360   58.4690 C.ar    0  <0>0        0.0915
     17  C18        6.2580   33.5950   59.7160 C.ar    0  <0>0        0.0145
     18 Cl          5.7640   32.4400   57.3180 Cl      0  <0>0       -0.0791
     19  C17        6.1890   34.6280   60.6330 C.ar    0  <0>0        0.0011
     20  C16        5.5390   35.8040   60.3060 C.ar    0  <0>0        0.0032
     21  C15        4.9610   35.9520   59.0590 C.ar    0  <0>0        0.0378
     22  C11        7.5890   38.3720   58.0310 C.2     0  <0>0        0.1428
     23  N1         8.1270   39.3530   57.3770 N.2     0  <0>0       -0.0846
     24  O1         9.2120   39.1090   56.5000 O.2     0  <0>0       -0.4087
     25  H8         9.2220   38.2040   55.8750 H       0  <0>0        0.3278
@<TRIPOS>BOND
     1    12    11    1
     2    12    13    1
     3    11     9    1
     4    25    24    1
     5    13    14    1
     6    24    23    1
     7     8     9   ar
     8     8     7   ar
     9     9    10   ar
    10    14    15    1
    11    18    16    1
    12    23    22    2
    13     7     5   ar
    14    10    22    1
    15    10     4   ar
    16    15    16   ar
    17    15    21   ar
    18    16    17   ar
    19     5     4   ar
    20     5     6   ar
    21    21    20   ar
    22     4     3   ar
    23    17    19   ar
    24     6     1   ar
    25     3     2   ar
    26    20    19   ar
    27     1     2   ar
