@<TRIPOS>MOLECULE
ZINC13457407_replica-1.pdb
 27 28 0 0 0
SMALL
GASTEIGER

@<TRIPOS>ATOM
      1  N1         7.8580   35.8610   58.0550 N.am    0  <0>0       -0.3015
      2  C12        7.8180   35.6510   56.7240 C.2     0  <0>0        0.2340
      3  O2         8.5020   36.3250   55.9840 O.2     0  <0>0       -0.2741
      4  H16        7.3110   35.3220   58.6470 H       0  <0>0        0.1497
      5  C4         8.7280   36.9020   58.6070 C.3     0  <0>0        0.0940
      6  C2         7.8720   38.0300   59.1860 C.3     0  <0>0        0.0222
      7  C1         7.6860   39.1220   58.1310 C.3     0  <0>0        0.0020
      8  C3         6.5050   37.4740   59.5930 C.3     0  <0>0        0.0020
      9  C5         9.5870   36.3140   59.6970 C.ar    0  <0>0       -0.0043
     10  C10       10.1140   35.0430   59.5510 C.ar    0  <0>0        0.0004
     11  C9        10.9010   34.5030   60.5500 C.ar    0  <0>0        0.0366
     12  C8        11.1630   35.2350   61.6980 C.ar    0  <0>0        0.1387
     13  C7        10.6340   36.5100   61.8410 C.ar    0  <0>0        0.0366
     14  C6         9.8510   37.0490   60.8380 C.ar    0  <0>0        0.0004
     15  O1        11.9390   34.7060   62.6810 O.3     0  <0>0       -0.4714
     16  C11       12.0060   33.2810   62.7590 C.3     0  <0>0        0.2525
     17  C13        6.9220   34.5810   56.1570 C.3     0  <0>0        0.1469
     18  S1         6.1030   33.6990   57.5080 S.3     0  <0>0       -0.1037
     19  C14        4.6080   34.6250   57.6170 C.ar    0  <0>0        0.0320
     20  C19        3.8830   34.6590   58.8200 C.ar    0  <0>0        0.0854
     21  C18        2.6990   35.3980   58.8920 C.ar    0  <0>0        0.0071
     22  C17        2.2500   36.0860   57.7850 C.ar    0  <0>0        0.0002
     23  C16        2.9680   36.0510   56.6000 C.ar    0  <0>0        0.0005
     24  C15        4.1410   35.3310   56.5140 C.ar    0  <0>0        0.0064
     25  C20        4.3690   33.9210   59.9980 C.2     0  <0>0        0.3882
     26  O3         5.1220   34.4600   60.7850 O.co2   0  <0>0       -0.2405
     27  O4         3.9780   32.6480   60.2040 O.co2   0  <0>0       -0.2405
@<TRIPOS>BOND
     1     3     2    2
     2    17     2    1
     3    17    18    1
     4    24    23   ar
     5    24    19   ar
     6    23    22   ar
     7     2     1   am
     8    18    19    1
     9    19    20   ar
    10    22    21   ar
    11     1     5    1
    12     1     4    1
    13     7     6    1
    14     5     6    1
    15     5     9    1
    16    20    21   ar
    17    20    25    1
    18     6     8    1
    19    10     9   ar
    20    10    11   ar
    21     9    14   ar
    22    25    27   ar
    23    25    26   ar
    24    11    12   ar
    25    14    13   ar
    26    12    13   ar
    27    12    15    1
    28    15    16    1
