@<TRIPOS>MOLECULE
ZINC24773593_replica-1.pdb
 30 33 0 0 0
SMALL
GASTEIGER

@<TRIPOS>ATOM
      1  N3         0.6470   30.1340   55.4350 N.4     0  <0>0        0.3928
      2  H13        1.3080   29.7000   54.6710 H       0  <0>0       -0.0830
      3  H23        1.0690   29.9500   56.4330 H       0  <0>0       -0.0830
      4  C11        0.5270   31.5810   55.2130 C.3     0  <0>0       -0.0500
      5  C9         1.0780   32.3200   56.4050 C.ar    0  <0>0       -0.0040
      6  C8         0.3660   33.0710   57.2770 C.ar    0  <0>0        0.0906
      7  N1         1.2240   33.5620   58.1940 N.ar    0  <0>0       -0.2453
      8  N2         2.5060   33.0890   57.8830 N.ar    0  <0>0       -0.1678
      9  C10        2.4180   32.3450   56.8100 C.ar    0  <0>0        0.1153
     10  C7         0.8770   34.4300   59.3210 C.3     0  <0>0        0.1538
     11  C4         0.5050   33.5840   60.5130 C.ar    0  <0>0        0.0021
     12  C3        -0.1150   34.1620   61.6040 C.ar    0  <0>0       -0.0023
     13  C2        -0.4560   33.3850   62.6960 C.ar    0  <0>0       -0.0003
     14  C1        -0.1700   32.0330   62.6990 C.ar    0  <0>0       -0.0000
     15  C6         0.4460   31.4540   61.6050 C.ar    0  <0>0       -0.0003
     16  C5         0.7850   32.2310   60.5130 C.ar    0  <0>0       -0.0023
     17  C12       -0.6650   29.4780   55.3510 C.3     0  <0>0       -0.0147
     18  C13       -1.0500   28.9470   56.7070 C.ar    0  <0>0       -0.0381
     19  C18       -2.2080   28.2080   56.8580 C.ar    0  <0>0       -0.0060
     20  C17       -2.5600   27.7200   58.1030 C.ar    0  <0>0       -0.0004
     21  C16       -1.7540   27.9730   59.1980 C.ar    0  <0>0       -0.0000
     22  C15       -0.5950   28.7110   59.0460 C.ar    0  <0>0       -0.0004
     23  C14       -0.2410   29.1940   57.8010 C.ar    0  <0>0       -0.0060
     24  C19       -0.5950   28.3400   54.3670 C.ar    0  <0>0       -0.0380
     25  C24        0.1140   27.1950   54.6820 C.ar    0  <0>0       -0.0051
     26  C23        0.1780   26.1500   53.7800 C.ar    0  <0>0        0.0110
     27  C22       -0.4660   26.2510   52.5590 C.ar    0  <0>0        0.0577
     28  C21       -1.1740   27.3960   52.2440 C.ar    0  <0>0        0.0110
     29 Cl         -0.3850   24.9390   51.4250 Cl      0  <0>0       -0.0822
     30  C20       -1.2430   28.4380   53.1500 C.ar    0  <0>0       -0.0051
@<TRIPOS>BOND
     1    29    27    1
     2    28    27   ar
     3    28    30   ar
     4    27    26   ar
     5    30    24   ar
     6    26    25   ar
     7    24    25   ar
     8    24    17    1
     9     2     1    1
    10     4     1    1
    11     4     5    1
    12    17     1    1
    13    17    18    1
    14     1     3    1
    15     5     9   ar
    16     5     6   ar
    17    18    19   ar
    18    18    23   ar
    19     9     8   ar
    20    19    20   ar
    21     6     7   ar
    22    23    22   ar
    23     8     7   ar
    24    20    21   ar
    25     7    10    1
    26    22    21   ar
    27    10    11    1
    28    16    11   ar
    29    16    15   ar
    30    11    12   ar
    31    12    13   ar
    32    15    14   ar
    33    13    14   ar
