@<TRIPOS>MOLECULE
ZINC13645386_replica-1.pdb
 33 37 0 0 0
SMALL
GASTEIGER

@<TRIPOS>ATOM
      1  C9        -0.6400   30.8680   57.1280 C.ar    0  <0>0        0.1249
      2  C10       -0.2430   30.1350   58.2310 C.ar    0  <0>0        0.0214
      3  C11        0.4850   30.7450   59.2330 C.ar    0  <0>0        0.0154
      4  C12        0.8140   32.0910   59.1310 C.ar    0  <0>0        0.0408
      5  C13        0.4150   32.8320   58.0290 C.ar    0  <0>0       -0.0080
      6  C14       -0.3110   32.2040   57.0250 C.ar    0  <0>0        0.0171
      7  C15        0.7240   34.2740   57.8900 C.3     0  <0>0        0.0255
      8  C16        1.8350   34.5000   56.8610 C.3     0  <0>0        0.0045
      9  C17        2.6150   35.4840   57.2360 C.3     0  <0>0        0.0004
     10  C18        2.1420   36.0640   58.5550 C.3     0  <0>0        0.0023
     11  C19        1.2940   34.9130   59.1710 C.3     0  <0>0        0.0267
     12  C20        2.2650   33.9440   59.8500 C.3     0  <0>0        0.0978
     13  N2         1.5560   32.6950   60.1520 N.pl3   0  <0>0       -0.3305
     14  H21        1.6000   32.3000   61.0360 H       0  <0>0        0.1471
     15  S1        -1.5670   30.0920   55.8470 S.O2    0  <0>0        0.0736
     16  O1        -2.5370   31.0380   55.4170 O.2     0  <0>0       -0.1499
     17  O2        -1.9220   28.8020   56.3260 O.2     0  <0>0       -0.1499
     18  N1        -0.5380   29.8560   54.5710 N.pl3   0  <0>0       -0.2150
     19  H13        0.0590   30.5680   54.2920 H       0  <0>0        0.1737
     20  C5        -0.5300   28.6320   53.8980 C.ar    0  <0>0        0.0644
     21  C4         0.1840   27.5580   54.4140 C.ar    0  <0>0        0.0155
     22  C3         0.1910   26.3500   53.7460 C.ar    0  <0>0       -0.0033
     23  C2        -0.5110   26.2090   52.5630 C.ar    0  <0>0       -0.0257
     24  C1        -0.5020   24.8890   51.8350 C.3     0  <0>0        0.0307
     25  C7        -1.2270   27.2750   52.0490 C.ar    0  <0>0       -0.0245
     26  C6        -1.2340   28.4870   52.7090 C.ar    0  <0>0        0.0113
     27  C8        -1.9960   27.1140   50.7620 C.3     0  <0>0        0.0307
     28  C21        3.4230   33.6570   58.9300 C.ar    0  <0>0        0.0210
     29  S2         3.5230   32.4960   57.5780 S.2     0  <0>0       -0.0895
     30  C24        5.2050   32.8320   57.0810 C.ar    0  <0>0        0.0348
     31  C23        5.5740   33.7860   57.9710 C.ar    0  <0>0        0.0029
     32  C22        4.6600   34.2090   58.9180 C.ar    0  <0>0       -0.0178
     33  C25        5.0360   35.2670   59.9230 C.3     0  <0>0        0.0313
@<TRIPOS>BOND
     1    27    25    1
     2    24    23    1
     3    25    23   ar
     4    25    26   ar
     5    23    22   ar
     6    26    20   ar
     7    22    21   ar
     8    20    21   ar
     9    20    18    1
    10    19    18    1
    11    18    15    1
    12    16    15    2
    13    15    17    2
    14    15     1    1
    15     8     9    1
    16     8     7    1
    17     6     1   ar
    18     6     5   ar
    19    30    29   ar
    20    30    31   ar
    21     1     2   ar
    22     9    10    1
    23    29    28   ar
    24     7     5    1
    25     7    11    1
    26    31    32   ar
    27     5     4   ar
    28     2     3   ar
    29    10    11    1
    30    32    28   ar
    31    32    33    1
    32    28    12    1
    33     4     3   ar
    34     4    13    1
    35    11    12    1
    36    12    13    1
    37    13    14    1
