@<TRIPOS>MOLECULE
ZINC01360944_replica-1.pdb
 31 33 0 0 0
SMALL
GASTEIGER

@<TRIPOS>ATOM
      1  C12        3.1790   32.4860   57.5840 C.3     0  <0>0        0.1508
      2  S1         2.9450   33.9890   58.5650 S.3     0  <0>0       -0.0729
      3  C11        4.5180   34.7510   58.3390 C.2     0  <0>0        0.1527
      4  C3         4.6840   35.6860   57.3070 C.2     0  <0>0        0.0098
      5  C4         5.8910   36.2920   57.1280 C.2     0  <0>0       -0.0166
      6  C5         6.9500   35.9400   57.9900 C.3     0  <0>0        0.0923
      7  C10        6.7190   34.9850   59.0110 C.2     0  <0>0        0.1167
      8  C6         8.2230   36.5120   57.8510 C.2     0  <0>0       -0.0339
      9  C9         7.7740   34.6390   59.8730 C.2     0  <0>0        0.0239
     10  N1         5.5100   34.4310   59.1460 N.2     0  <0>0       -0.3997
     11  C8         8.9980   35.2140   59.7100 C.2     0  <0>0       -0.0202
     12  C7         9.2230   36.1480   58.7020 C.2     0  <0>0       -0.0120
     13  C22       10.1260   34.8330   60.6350 C.3     0  <0>0        0.0311
     14  C23        8.4840   37.5240   56.7650 C.3     0  <0>0        0.0271
     15  C2         3.5270   36.0270   56.4040 C.3     0  <0>0        0.0292
     16  C1         3.8020   35.4930   54.9970 C.3     0  <0>0        0.0051
     17  C13        2.0170   32.3160   56.6410 C.2     0  <0>0        0.2494
     18  O1         1.3230   33.2690   56.3550 O.2     0  <0>0       -0.2726
     19  N2         1.7490   31.1050   56.1140 N.am    0  <0>0       -0.2331
     20  H11        2.3040   30.3430   56.3420 H       0  <0>0        0.1728
     21  N3         0.6680   30.9460   55.2360 N.am    0  <0>0       -0.2336
     22  C14       -0.2900   30.0370   55.5030 C.2     0  <0>0        0.2424
     23  O2        -0.2160   29.3550   56.5040 O.2     0  <0>0       -0.2732
     24  H12        0.6090   31.4930   54.4360 H       0  <0>0        0.1728
     25  C15       -1.4520   29.8670   54.5600 C.3     0  <0>0        0.1128
     26  C16       -1.1800   28.7130   53.6300 C.ar    0  <0>0       -0.0130
     27  C21       -0.3990   27.6530   54.0540 C.ar    0  <0>0       -0.0038
     28  C20       -0.1510   26.5950   53.2010 C.ar    0  <0>0       -0.0003
     29  C19       -0.6810   26.5950   51.9250 C.ar    0  <0>0       -0.0000
     30  C18       -1.4630   27.6540   51.5010 C.ar    0  <0>0       -0.0003
     31  C17       -1.7170   28.7110   52.3560 C.ar    0  <0>0       -0.0038
@<TRIPOS>BOND
     1    30    29   ar
     2    30    31   ar
     3    29    28   ar
     4    31    26   ar
     5    28    27   ar
     6    26    27   ar
     7    26    25    1
     8    24    21    1
     9    25    22    1
    10    16    15    1
    11    21    22   am
    12    21    19    1
    13    22    23    2
    14    19    20    1
    15    19    17   am
    16    18    17    2
    17    15     4    1
    18    17     1    1
    19    14     8    1
    20     5     4    2
    21     5     6    1
    22     4     3    1
    23     1     2    1
    24     8     6    1
    25     8    12    2
    26     6     7    1
    27     3     2    1
    28     3    10    2
    29    12    11    1
    30     7    10    2
    31     7     9    1
    32    11     9    2
    33    11    13    1
