@<TRIPOS>MOLECULE
ZINC02151438_replica-1.pdb
 30 32 0 0 0
SMALL
GASTEIGER

@<TRIPOS>ATOM
      1  C11        5.1470   35.4410   58.6120 C.3     0  <0>0        0.0234
      2  C10        5.4360   35.9340   60.0310 C.3     0  <0>0       -0.0189
      3  C9         5.9610   37.3700   59.9760 C.3     0  <0>0       -0.0809
      4  N1         6.6970   37.5670   58.7120 N.4     0  <0>0        0.3876
      5  H35        6.8020   36.6620   58.2370 H       0  <0>0       -0.0839
      6  H36        6.1710   38.2110   58.1100 H       0  <0>0       -0.0839
      7  C2         8.0320   38.1330   58.9810 C.3     0  <0>0       -0.0385
      8  C1         8.6020   38.7320   57.6930 C.3     0  <0>0       -0.0189
      9  C3         8.9440   37.0370   59.4730 C.ar    0  <0>0       -0.0421
     10  C8         9.5380   37.1400   60.7170 C.ar    0  <0>0       -0.0063
     11  C7        10.3730   36.1360   61.1690 C.ar    0  <0>0       -0.0004
     12  C6        10.6100   35.0270   60.3790 C.ar    0  <0>0       -0.0000
     13  C5        10.0210   34.9270   59.1330 C.ar    0  <0>0       -0.0004
     14  C4         9.1850   35.9310   58.6810 C.ar    0  <0>0       -0.0063
     15  C12        3.6590   35.4270   58.3780 C.ar    0  <0>0        0.0114
     16  C17        3.1430   35.8580   57.1640 C.ar    0  <0>0        0.1347
     17  C16        1.7730   35.8400   56.9490 C.ar    0  <0>0        0.0366
     18  C15        0.9250   35.4020   57.9470 C.ar    0  <0>0        0.0031
     19  C14        1.4400   34.9770   59.1580 C.ar    0  <0>0       -0.0001
     20  C13        2.8060   34.9890   59.3730 C.ar    0  <0>0       -0.0013
     21  O1         3.9790   36.2950   56.1860 O.3     0  <0>0       -0.4717
     22  C18        3.9960   35.5500   54.9660 C.3     0  <0>0        0.2525
     23  C19        5.7040   34.0260   58.4400 C.3     0  <0>0        0.0089
     24  C23        6.5860   33.6720   59.6420 C.3     0  <0>0        0.0276
     25  C22        7.2010   32.2880   59.4230 C.3     0  <0>0        0.0929
     26  O2         7.9470   32.2860   58.2050 O.3     0  <0>0       -0.3585
     27  C24        6.0870   31.2420   59.3410 C.3     0  <0>0        0.0296
     28  C25        8.1300   31.9530   60.5910 C.3     0  <0>0        0.0296
     29  C21        7.1650   32.5640   57.0410 C.3     0  <0>0        0.1420
     30  C20        6.5490   33.9600   57.1630 C.3     0  <0>0        0.0325
@<TRIPOS>BOND
     1    22    21    1
     2    21    16    1
     3    17    16   ar
     4    17    18   ar
     5    29    30    1
     6    29    26    1
     7    30    23    1
     8    16    15   ar
     9     8     7    1
    10    18    19   ar
    11     6     4    1
    12    26    25    1
    13     5     4    1
    14    15     1    1
    15    15    20   ar
    16    23     1    1
    17    23    24    1
    18     1     2    1
    19    14    13   ar
    20    14     9   ar
    21     4     7    1
    22     4     3    1
    23     7     9    1
    24    13    12   ar
    25    19    20   ar
    26    27    25    1
    27    25    24    1
    28    25    28    1
    29     9    10   ar
    30     3     2    1
    31    12    11   ar
    32    10    11   ar
