@<TRIPOS>MOLECULE
ZINC53766965_replica-1.pdb
 18 18 0 0 0
SMALL
GASTEIGER

@<TRIPOS>ATOM
      1  C7        10.1050   35.8550   60.4740 C.ar    0  <0>0        0.0388
      2  C8         9.8700   34.8490   59.5280 C.ar    0  <0>0        0.0429
      3  C9         8.9660   35.0630   58.5070 C.ar    0  <0>0        0.1733
      4  C10        8.2890   36.2790   58.4170 C.ar    0  <0>0        0.1828
      5  C11        8.5200   37.2780   59.3550 C.ar    0  <0>0        0.0947
      6  C12        9.4180   37.0710   60.3810 C.ar    0  <0>0        0.0175
      7 Cl          7.6740   38.7900   59.2360 Cl      0  <0>0       -0.0790
      8  C6        11.0650   35.6340   61.5630 C.2     0  <0>0        0.1732
      9  O1        11.2430   36.4960   62.3980 O.2     0  <0>0       -0.2913
     10  C5        11.8270   34.3370   61.6430 C.3     0  <0>0        0.0692
     11  C4        12.6540   34.3100   62.9300 C.3     0  <0>0        0.0081
     12  C2        13.7720   33.2750   62.7970 C.3     0  <0>0        0.0004
     13  C1        14.9130   33.6310   63.7520 C.3     0  <0>0        0.0000
     14  C3        13.2280   31.8880   63.1470 C.3     0  <0>0        0.0000
     15  O3         8.7360   34.0880   57.5870 O.3     0  <0>0       -0.4683
     16  C14        8.4830   32.7730   58.0850 C.3     0  <0>0        0.2526
     17  O2         7.4000   36.4870   57.4120 O.3     0  <0>0       -0.4675
     18  C13        6.0440   36.1100   57.6570 C.3     0  <0>0        0.2527
@<TRIPOS>BOND
     1    17    18    1
     2    17     4    1
     3    15    16    1
     4    15     3    1
     5     4     3   ar
     6     4     5   ar
     7     3     2   ar
     8     7     5    1
     9     5     6   ar
    10     2     1   ar
    11     6     1   ar
    12     1     8    1
    13     8    10    1
    14     8     9    2
    15    10    11    1
    16    12    11    1
    17    12    14    1
    18    12    13    1
