@<TRIPOS>MOLECULE
ZINC49920287_replica-1.pdb
 24 25 0 0 0
SMALL
GASTEIGER

@<TRIPOS>ATOM
      1  C9        -1.2600   29.1480   55.3370 C.3     0  <0>0        0.1213
      2  C8        -0.0490   28.3350   54.8770 C.3     0  <0>0        0.1518
      3  C6        -0.4240   27.5160   53.6680 C.ar    0  <0>0        0.0017
      4  C5        -0.0440   26.1890   53.5870 C.ar    0  <0>0       -0.0235
      5  C4        -0.3880   25.4370   52.4780 C.ar    0  <0>0       -0.0048
      6  C17        0.7440   25.5620   54.7070 C.3     0  <0>0        0.0308
      7  C3        -1.1120   26.0130   51.4520 C.ar    0  <0>0       -0.0046
      8  C2        -1.4930   27.3390   51.5330 C.ar    0  <0>0       -0.0221
      9  C1        -2.2830   27.9660   50.4120 C.3     0  <0>0        0.0310
     10  C7        -1.1440   28.0920   52.6390 C.ar    0  <0>0       -0.0065
     11  O1         1.0200   29.2210   54.5370 O.3     0  <0>0       -0.3783
     12  H15        1.1120   29.9740   55.1360 H       0  <0>0        0.2109
     13  N1        -1.2710   29.2210   56.7990 N.pl3   0  <0>0       -0.3304
     14  H10       -1.6970   28.5210   57.3170 H       0  <0>0        0.1469
     15  C10       -0.6670   30.3010   57.4490 C.ar    0  <0>0        0.0447
     16  C15       -0.0860   30.1230   58.6980 C.ar    0  <0>0        0.0142
     17  C14        0.5150   31.1920   59.3360 C.ar    0  <0>0        0.0051
     18  C13        0.5280   32.4380   58.7370 C.ar    0  <0>0        0.0715
     19  C12       -0.0560   32.6190   57.4960 C.ar    0  <0>0        0.0051
     20  C11       -0.6530   31.5540   56.8510 C.ar    0  <0>0        0.0142
     21  C16        1.1790   33.6030   59.4390 C.3     0  <0>0        0.4186
     22  F1         0.4180   34.7570   59.2300 F       0  <0>0       -0.1659
     23  F2         1.2570   33.3360   60.8100 F       0  <0>0       -0.1659
     24  F3         2.4660   33.7940   58.9260 F       0  <0>0       -0.1659
@<TRIPOS>BOND
     1     9     8    1
     2     7     8   ar
     3     7     5   ar
     4     8    10   ar
     5     5     4   ar
     6    10     3   ar
     7     4     3   ar
     8     4     6    1
     9     3     2    1
    10    11     2    1
    11    11    12    1
    12     2     1    1
    13     1    13    1
    14    13    14    1
    15    13    15    1
    16    20    15   ar
    17    20    19   ar
    18    15    16   ar
    19    19    18   ar
    20    16    17   ar
    21    18    17   ar
    22    18    21    1
    23    24    21    1
    24    22    21    1
    25    21    23    1
