@<TRIPOS>MOLECULE
ZINC41510005_replica-1.pdb
 30 34 0 0 0
SMALL
GASTEIGER

@<TRIPOS>ATOM
      1  C10        1.4170   31.8300   61.2020 C.2     0  <0>0        0.0423
      2  C11        0.7380   31.0200   60.3420 C.2     0  <0>0        0.1841
      3  C12       -0.2610   30.0780   60.7030 C.2     0  <0>0        0.2327
      4  O1        -0.6780   29.8330   61.8230 O.2     0  <0>0       -0.2832
      5  C13       -0.6860   29.4610   59.4350 C.ar    0  <0>0        0.0767
      6  C14       -1.6210   28.4780   59.1100 C.ar    0  <0>0        0.0095
      7  C15       -1.7930   28.1070   57.8070 C.ar    0  <0>0        0.0372
      8  C16       -1.0390   28.7060   56.8010 C.ar    0  <0>0        0.1421
      9  C17       -0.1070   29.6830   57.1090 C.ar    0  <0>0        0.0745
     10  C18        0.0800   30.0720   58.4280 C.ar    0  <0>0        0.1516
     11  O2         0.8980   30.9840   58.9970 O.3     0  <0>0       -0.4500
     12  C3         2.4200   32.7610   60.6910 C.ar    0  <0>0        0.0217
     13  C2         3.7720   32.7500   60.9590 C.ar    0  <0>0        0.0760
     14  N1         4.3730   33.7720   60.3010 N.ar    0  <0>0       -0.3240
     15  C1         5.8070   34.0690   60.3510 C.3     0  <0>0        0.1305
     16  C5         3.4450   34.4970   59.5820 C.ar    0  <0>0        0.0600
     17  C4         2.1890   33.9030   59.7830 C.ar    0  <0>0        0.0173
     18  C6         3.5440   35.6170   58.7620 C.ar    0  <0>0        0.0172
     19  C9         1.0580   34.4310   59.1670 C.ar    0  <0>0        0.0015
     20  C8         1.1760   35.5460   58.3660 C.ar    0  <0>0        0.0001
     21  C7         2.4160   36.1330   58.1610 C.ar    0  <0>0        0.0015
     22  O3        -1.2190   28.3280   55.5100 O.3     0  <0>0       -0.4705
     23  C19       -0.0430   28.0690   54.7410 C.3     0  <0>0        0.2321
     24  C20       -0.4110   27.2740   53.5140 C.ar    0  <0>0        0.0234
     25  C25       -1.1340   27.8680   52.4970 C.ar    0  <0>0        0.0289
     26  C24       -1.4670   27.1390   51.3680 C.ar    0  <0>0        0.1399
     27  C23       -1.0840   25.8130   51.2640 C.ar    0  <0>0        0.0296
     28  F1        -2.1690   27.7210   50.3710 F       0  <0>0       -0.2042
     29  C22       -0.3650   25.2190   52.2840 C.ar    0  <0>0        0.0021
     30  C21       -0.0290   25.9490   53.4080 C.ar    0  <0>0       -0.0005
@<TRIPOS>BOND
     1    28    26    1
     2    27    26   ar
     3    27    29   ar
     4    26    25   ar
     5    29    30   ar
     6    25    24   ar
     7    30    24   ar
     8    24    23    1
     9    23    22    1
    10    22     8    1
    11     8     9   ar
    12     8     7   ar
    13     9    10   ar
    14     7     6   ar
    15    21    20   ar
    16    21    18   ar
    17    20    19   ar
    18    10    11    1
    19    10     5   ar
    20    18    16   ar
    21    11     2    1
    22     6     5   ar
    23    19    17   ar
    24     5     3    1
    25    16    17   ar
    26    16    14   ar
    27    17    12   ar
    28    14    15    1
    29    14    13   ar
    30     2     3    1
    31     2     1    2
    32    12    13   ar
    33    12     1    1
    34     3     4    2
