@<TRIPOS>MOLECULE
ZINC37231516_replica-1.pdb
 21 22 0 0 0
SMALL
GASTEIGER

@<TRIPOS>ATOM
      1  C6        -0.5850   27.8600   53.2660 C.ar    0  <0>0       -0.0073
      2  C7        -1.3620   28.5120   52.3250 C.ar    0  <0>0       -0.0029
      3  C8        -1.8690   27.8220   51.2390 C.ar    0  <0>0        0.0004
      4  C9        -1.6020   26.4770   51.0870 C.ar    0  <0>0        0.0103
      5  C10       -0.8190   25.8130   52.0320 C.ar    0  <0>0        0.0682
      6  C11       -0.3060   26.5170   53.1240 C.ar    0  <0>0        0.0073
      7  C12       -0.5380   24.4160   51.8800 C.1     0  <0>0        0.1004
      8  N2        -0.3160   23.3090   51.7600 N.1     0  <0>0       -0.1908
      9  C4        -0.0360   28.6200   54.4470 C.3     0  <0>0        0.0769
     10  C5        -0.4510   30.0890   54.3440 C.3     0  <0>0        0.0220
     11  N1        -0.5680   28.0460   55.6890 N.3     0  <0>0       -0.2948
     12  H8        -1.3880   27.4850   55.5070 H       0  <0>0        0.1235
     13  C3         0.4590   27.2640   56.3900 C.3     0  <0>0        0.0731
     14  C2        -0.2110   26.3350   57.4050 C.3     0  <0>0        0.0381
     15  C1         0.4070   26.5610   58.7870 C.3     0  <0>0        0.0061
     16  C13       -0.0010   24.9020   56.9890 C.ar    0  <0>0       -0.0212
     17  C18       -0.3450   23.8750   57.8490 C.ar    0  <0>0       -0.0042
     18  C17       -0.1580   22.5610   57.4660 C.ar    0  <0>0       -0.0003
     19  C16        0.3820   22.2720   56.2270 C.ar    0  <0>0       -0.0000
     20  C15        0.7310   23.2990   55.3690 C.ar    0  <0>0       -0.0003
     21  C14        0.5390   24.6140   55.7500 C.ar    0  <0>0       -0.0042
@<TRIPOS>BOND
     1     4     3   ar
     2     4     5   ar
     3     3     2   ar
     4     8     7    3
     5     7     5    1
     6     5     6   ar
     7     2     1   ar
     8     6     1   ar
     9     1     9    1
    10    10     9    1
    11     9    11    1
    12    20    21   ar
    13    20    19   ar
    14    12    11    1
    15    11    13    1
    16    21    16   ar
    17    19    18   ar
    18    13    14    1
    19    16    14    1
    20    16    17   ar
    21    14    15    1
    22    18    17   ar
