@<TRIPOS>MOLECULE
ZINC04869058_replica-1.pdb
 26 28 0 0 0
SMALL
GASTEIGER

@<TRIPOS>ATOM
      1  C10        7.3890   35.1890   57.3560 C.ar    0  <0>0        0.0481
      2  C11        7.9440   36.4410   57.6000 C.ar    0  <0>0        0.0146
      3  C12        8.9280   36.5860   58.5530 C.ar    0  <0>0        0.0029
      4  C13        9.3760   35.4730   59.2680 C.ar    0  <0>0        0.0208
      5  C14        8.8200   34.2150   59.0170 C.ar    0  <0>0        0.0029
      6  C15        7.8320   34.0780   58.0660 C.ar    0  <0>0        0.0146
      7  N1         6.3880   35.0460   56.3950 N.pl3   0  <0>0       -0.3036
      8  C2         6.2420   33.7810   55.6720 C.3     0  <0>0        0.0911
      9  C1         5.3980   34.0050   54.4160 C.3     0  <0>0        0.0232
     10  C3         5.4810   36.1610   56.1110 C.3     0  <0>0        0.1177
     11  C4         4.2180   35.9980   56.9180 C.ar    0  <0>0       -0.0024
     12  C9         4.2920   35.7090   58.2670 C.ar    0  <0>0       -0.0026
     13  C8         3.1340   35.5600   59.0080 C.ar    0  <0>0       -0.0003
     14  C7         1.9010   35.7010   58.3970 C.ar    0  <0>0       -0.0000
     15  C6         1.8260   35.9900   57.0480 C.ar    0  <0>0       -0.0003
     16  C5         2.9850   36.1440   56.3090 C.ar    0  <0>0       -0.0026
     17  C16       10.4340   35.6220   60.2840 C.2     0  <0>0        0.1175
     18  N2        10.7910   34.6020   61.0040 N.2     0  <0>0       -0.1798
     19  N3        11.7970   34.7430   61.9690 N.pl3   0  <0>0       -0.2359
     20  H18       12.0930   35.6280   62.2350 H       0  <0>0        0.1744
     21  C17       12.3710   33.6120   62.5480 C.ar    0  <0>0        0.0650
     22  C22       11.5940   32.4880   62.8000 C.ar    0  <0>0        0.0160
     23  C21       12.1650   31.3700   63.3740 C.ar    0  <0>0        0.0013
     24  C20       13.5100   31.3670   63.6980 C.ar    0  <0>0        0.0001
     25  C19       14.2860   32.4830   63.4490 C.ar    0  <0>0        0.0013
     26  C18       13.7230   33.6030   62.8700 C.ar    0  <0>0        0.0160
@<TRIPOS>BOND
     1     9     8    1
     2     8     7    1
     3    10     7    1
     4    10    11    1
     5    16    11   ar
     6    16    15   ar
     7     7     1    1
     8    11    12   ar
     9    15    14   ar
    10     1     2   ar
    11     1     6   ar
    12     2     3   ar
    13     6     5   ar
    14    12    13   ar
    15    14    13   ar
    16     3     4   ar
    17     5     4   ar
    18     4    17    1
    19    17    18    2
    20    18    19    1
    21    19    20    1
    22    19    21    1
    23    21    22   ar
    24    21    26   ar
    25    22    23   ar
    26    26    25   ar
    27    23    24   ar
    28    25    24   ar
