@<TRIPOS>MOLECULE
ZINC04468966_replica-1.pdb
 25 28 0 0 0
SMALL
GASTEIGER

@<TRIPOS>ATOM
      1  C1        -2.3470   28.0840   50.8920 C.ar    0  <0>0       -0.0003
      2  C2        -2.4720   29.2120   51.6830 C.ar    0  <0>0       -0.0003
      3  C3        -1.8220   29.2710   52.8980 C.ar    0  <0>0       -0.0026
      4  C4        -1.0430   28.2080   53.3350 C.ar    0  <0>0       -0.0019
      5  C5        -0.9230   27.0820   52.5500 C.ar    0  <0>0       -0.0242
      6  C6        -1.5760   27.0250   51.3260 C.ar    0  <0>0       -0.0045
      7  C7        -0.1090   25.8860   52.9700 C.3     0  <0>0        0.0262
      8  C8         0.8780   26.2660   54.0720 C.3     0  <0>0        0.0071
      9  C9         0.1090   26.9850   55.1880 C.3     0  <0>0        0.0316
     10  C10       -0.3490   28.3380   54.6620 C.3     0  <0>0        0.1463
     11  C11       -1.2620   29.0090   55.6640 C.2     0  <0>0        0.2526
     12  O1        -2.3320   28.6060   56.0660 O.2     0  <0>0       -0.2723
     13  N1        -0.6340   30.1500   56.0170 N.am    0  <0>0       -0.2084
     14  C12        0.5350   30.2870   55.3800 C.2     0  <0>0        0.3105
     15  O2         1.2820   31.2340   55.5340 O.2     0  <0>0       -0.2521
     16  N2         0.7920   29.2580   54.5520 N.am    0  <0>0       -0.2806
     17  H11        1.5760   29.1450   53.9910 H       0  <0>0        0.1516
     18  C13       -1.1660   31.1190   56.9790 C.3     0  <0>0        0.1295
     19  C14       -0.4190   30.9920   58.2820 C.ar    0  <0>0        0.0044
     20  C19        0.2660   32.0790   58.7950 C.ar    0  <0>0        0.0322
     21  C18        0.9480   31.9630   59.9930 C.ar    0  <0>0        0.0064
     22 Br          0.2630   33.7250   57.8640 Br      0  <0>0       -0.0493
     23  C17        0.9540   30.7590   60.6710 C.ar    0  <0>0        0.0005
     24  C16        0.2730   29.6710   60.1550 C.ar    0  <0>0       -0.0002
     25  C15       -0.4120   29.7880   58.9610 C.ar    0  <0>0       -0.0021
@<TRIPOS>BOND
     1     1     6   ar
     2     1     2   ar
     3     6     5   ar
     4     2     3   ar
     5     5     7    1
     6     5     4   ar
     7     3     4   ar
     8     7     8    1
     9     4    10    1
    10    17    16    1
    11     8     9    1
    12    16    10    1
    13    16    14   am
    14    10     9    1
    15    10    11    1
    16    14    15    2
    17    14    13   am
    18    11    13   am
    19    11    12    2
    20    13    18    1
    21    18    19    1
    22    22    20    1
    23    19    20   ar
    24    19    25   ar
    25    20    21   ar
    26    25    24   ar
    27    21    23   ar
    28    24    23   ar
