@<TRIPOS>MOLECULE
ZINC36991083_replica-1.pdb
 21 22 0 0 0
SMALL
GASTEIGER

@<TRIPOS>ATOM
      1  C9        10.5150   35.2570   60.5070 C.ar    0  <0>0        0.0461
      2  C10       10.3980   36.4760   61.1630 C.ar    0  <0>0        0.0144
      3  C11       11.0890   36.6990   62.3390 C.ar    0  <0>0        0.0028
      4  C12       11.8980   35.7090   62.8660 C.ar    0  <0>0        0.0177
      5  C13       12.0200   34.4890   62.2140 C.ar    0  <0>0        0.0682
      6  C14       11.3240   34.2600   61.0370 C.ar    0  <0>0        0.0319
      7  N1         9.8160   35.0320   59.3180 N.pl3   0  <0>0       -0.3340
      8  H18       10.2060   34.4760   58.6250 H       0  <0>0        0.1468
      9  C6         8.4960   35.6350   59.1200 C.3     0  <0>0        0.0690
     10  C5         8.5000   36.4570   57.8300 C.3     0  <0>0        0.0195
     11  C3         8.5820   37.9460   58.1730 C.3     0  <0>0        0.0016
     12  C4         7.6470   38.2500   59.3470 C.3     0  <0>0        0.0001
     13  C2         8.1610   38.7730   56.9580 C.3     0  <0>0        0.0001
     14  C1         7.4710   37.8660   55.9360 C.3     0  <0>0        0.0000
     15  C7         7.4420   34.5310   59.0180 C.3     0  <0>0        0.0195
     16  C8         8.0680   33.2830   58.3940 C.3     0  <0>0        0.0017
     17  N2        12.8420   33.4870   62.7490 N.ar    0  <0>0       -0.2689
     18  C16       12.4960   32.1960   63.0200 C.ar    0  <0>0        0.2069
     19  N4        13.5550   31.6050   63.5020 N.ar    0  <0>0       -0.1251
     20  N3        14.5330   32.4380   63.5600 N.ar    0  <0>0       -0.1251
     21  C15       14.1500   33.6030   63.1120 C.ar    0  <0>0        0.2069
@<TRIPOS>BOND
     1    14    13    1
     2    13    11    1
     3    10    11    1
     4    10     9    1
     5    11    12    1
     6    16    15    1
     7     8     7    1
     8    15     9    1
     9     9     7    1
    10     7     1    1
    11     1     6   ar
    12     1     2   ar
    13     6     5   ar
    14     2     3   ar
    15     5    17    1
    16     5     4   ar
    17     3     4   ar
    18    17    18   ar
    19    17    21   ar
    20    18    19   ar
    21    21    20   ar
    22    19    20   ar
