@<TRIPOS>MOLECULE
ZINC36972362_replica-1.pdb
 21 22 0 0 0
SMALL
GASTEIGER

@<TRIPOS>ATOM
      1  C8         9.7270   36.8150   60.8530 C.ar    0  <0>0        0.0446
      2  C9        10.4160   37.0440   62.0390 C.ar    0  <0>0        0.0144
      3  C10       11.3440   36.1290   62.4860 C.ar    0  <0>0        0.0043
      4  C11       11.5930   34.9710   61.7470 C.ar    0  <0>0        0.0360
      5  C12       10.9000   34.7440   60.5570 C.ar    0  <0>0        0.0043
      6  C13        9.9700   35.6600   60.1170 C.ar    0  <0>0        0.0144
      7  N1         8.7880   37.7420   60.4020 N.pl3   0  <0>0       -0.3340
      8  H16        8.7910   38.6460   60.7550 H       0  <0>0        0.1468
      9  C2         7.7970   37.3510   59.3970 C.3     0  <0>0        0.0691
     10  C1         6.3910   37.4960   59.9830 C.3     0  <0>0        0.0212
     11  C3         7.9320   38.2550   58.1690 C.3     0  <0>0        0.0195
     12  C4         8.6850   37.5080   57.0670 C.3     0  <0>0        0.0017
     13  C5         7.8150   36.3670   56.5370 C.3     0  <0>0        0.0001
     14  C6         7.5270   36.5900   55.0510 C.3     0  <0>0        0.0000
     15  C7         8.5510   35.0380   56.7190 C.3     0  <0>0        0.0000
     16  C14       12.5890   33.9880   62.2240 C.ar    0  <0>0        0.1665
     17  N4        12.3260   32.7560   62.7590 N.ar    0  <0>0       -0.2909
     18  C15       13.5400   32.2110   63.0480 C.ar    0  <0>0        0.2027
     19  C16       11.0100   32.1490   62.9740 C.3     0  <0>0        0.1336
     20  N3        14.4510   33.0810   62.7060 N.ar    0  <0>0       -0.1255
     21  N2        13.8960   34.1330   62.2200 N.ar    0  <0>0       -0.1286
@<TRIPOS>BOND
     1    14    13    1
     2    13    15    1
     3    13    12    1
     4    12    11    1
     5    11     9    1
     6     9    10    1
     7     9     7    1
     8     6     5   ar
     9     6     1   ar
    10     7     8    1
    11     7     1    1
    12     5     4   ar
    13     1     2   ar
    14     4    16    1
    15     4     3   ar
    16     2     3   ar
    17    21    16   ar
    18    21    20   ar
    19    16    17   ar
    20    20    18   ar
    21    17    19    1
    22    17    18   ar
