@<TRIPOS>MOLECULE
ZINC50832851_replica-1.pdb
 21 22 0 0 0
SMALL
GASTEIGER

@<TRIPOS>ATOM
      1  C6         0.3180   29.7690   54.6010 C.3     0  <0>0        0.2503
      2  C5         0.3290   30.5620   55.8810 C.2     0  <0>0        0.1262
      3  C4         0.3260   29.9560   57.1050 C.3     0  <0>0        0.1661
      4  S1         0.3360   31.2740   58.1470 S.3     0  <0>0        0.0163
      5  N3         0.3520   32.5040   57.0100 N.pl3   0  <0>0       -0.0825
      6  N2         0.3420   31.8770   55.8830 N.2     0  <0>0       -0.1550
      7  N1         0.3130   28.5970   57.4100 N.3     0  <0>0       -0.2841
      8  H8         0.9880   28.0100   57.0360 H       0  <0>0        0.1244
      9  C3        -0.7200   28.0550   58.2970 C.3     0  <0>0        0.0695
     10  C2        -2.1000   28.3180   57.6920 C.3     0  <0>0        0.0171
     11  C1        -3.0270   27.1410   58.0060 C.3     0  <0>0        0.0015
     12  O1        -0.8060   28.8860   54.5960 O.3     0  <0>0       -0.4699
     13  C7        -1.1240   28.2980   53.4130 C.ar    0  <0>0        0.1307
     14  C12       -0.6170   27.0450   53.1020 C.ar    0  <0>0        0.0079
     15  C11       -0.9470   26.4470   51.9010 C.ar    0  <0>0       -0.0229
     16  C13        0.2870   26.3340   54.0750 C.3     0  <0>0        0.0339
     17  C10       -1.7710   27.1010   51.0050 C.ar    0  <0>0       -0.0047
     18  C14       -0.4020   25.0830   51.5650 C.3     0  <0>0        0.0308
     19  C9        -2.2740   28.3530   51.3100 C.ar    0  <0>0       -0.0016
     20  C8        -1.9520   28.9530   52.5120 C.ar    0  <0>0        0.0118
     21  C15       -2.5000   30.3170   52.8450 C.3     0  <0>0        0.0342
@<TRIPOS>BOND
     1    17    19   ar
     2    17    15   ar
     3    19    20   ar
     4    18    15    1
     5    15    14   ar
     6    20    21    1
     7    20    13   ar
     8    14    13   ar
     9    14    16    1
    10    13    12    1
    11    12     1    1
    12     1     2    1
    13     2     6    2
    14     2     3    1
    15     6     5    1
    16     5     4    1
    17     8     7    1
    18     3     7    1
    19     3     4    1
    20     7     9    1
    21    10    11    1
    22    10     9    1
