@<TRIPOS>MOLECULE
ZINC36992575_replica-1.pdb
 21 22 0 0 0
SMALL
GASTEIGER

@<TRIPOS>ATOM
      1  C8        10.3820   35.2360   60.6510 C.3     0  <0>0        0.0768
      2  C9        10.2810   36.5860   61.3660 C.3     0  <0>0        0.0220
      3  N1         9.0380   34.6730   60.4730 N.3     0  <0>0       -0.2959
      4  H11        8.3500   35.2140   60.9750 H       0  <0>0        0.1235
      5  C2         8.6920   34.5760   59.0490 C.3     0  <0>0        0.0592
      6  C1         8.5950   33.1020   58.6480 C.3     0  <0>0        0.0175
      7  C3         7.3470   35.2620   58.8010 C.3     0  <0>0        0.0486
      8  C4         7.5560   36.4850   57.9460 C.ar    0  <0>0        0.0086
      9  S1         6.7250   36.9580   56.4390 S.2     0  <0>0       -0.0907
     10  C7         7.5910   38.4910   56.1450 C.ar    0  <0>0        0.0351
     11  C6         8.4460   38.5360   57.1950 C.ar    0  <0>0        0.0072
     12  C5         8.4290   37.5080   58.1180 C.ar    0  <0>0        0.0027
     13  C10       11.2160   34.2910   61.4780 C.ar    0  <0>0       -0.0079
     14  C15       12.5100   34.6340   61.8250 C.ar    0  <0>0       -0.0013
     15  C14       13.2740   33.7700   62.5860 C.ar    0  <0>0        0.0238
     16  C13       12.7470   32.5590   62.9940 C.ar    0  <0>0        0.1429
     17  C12       11.4550   32.2140   62.6440 C.ar    0  <0>0        0.0238
     18  C11       10.6900   33.0800   61.8860 C.ar    0  <0>0       -0.0013
     19  N2        13.5660   31.6310   63.8070 N.pl3   0  <0>0        0.0577
     20  O1        13.1920   30.4960   63.9900 O.2     0  <0>0       -0.1261
     21  O2        14.6080   32.0100   64.2900 O.2     0  <0>0       -0.1261
@<TRIPOS>BOND
     1    10     9   ar
     2    10    11   ar
     3     9     8   ar
     4    11    12   ar
     5     8    12   ar
     6     8     7    1
     7     6     5    1
     8     7     5    1
     9     5     3    1
    10     3     1    1
    11     3     4    1
    12     1     2    1
    13     1    13    1
    14    13    14   ar
    15    13    18   ar
    16    14    15   ar
    17    18    17   ar
    18    15    16   ar
    19    17    16   ar
    20    16    19    1
    21    19    20    2
    22    19    21    2
