@<TRIPOS>MOLECULE
ZINC21504599_replica-1.pdb
 20 21 0 0 0
SMALL
GASTEIGER

@<TRIPOS>ATOM
      1  C9         9.3370   35.9020   59.2200 C.ar    0  <0>0        0.0545
      2  C10        9.4750   37.0400   60.0030 C.ar    0  <0>0        0.0150
      3  C11        8.8360   38.2100   59.6440 C.ar    0  <0>0        0.0013
      4  C12        8.0530   38.2580   58.5010 C.ar    0  <0>0        0.0008
      5  C13        7.9050   37.1390   57.7110 C.ar    0  <0>0        0.0115
      6  C14        8.5500   35.9490   58.0580 C.ar    0  <0>0        0.0815
      7  C15        8.4040   34.7840   57.2390 C.1     0  <0>0        0.1017
      8  N2         8.2890   33.8600   56.5890 N.1     0  <0>0       -0.1908
      9  N1         9.9810   34.7230   59.5810 N.pl3   0  <0>0       -0.3301
     10  H8        10.7820   34.3180   58.9450 H       0  <0>0        0.1471
     11  C2         9.5920   34.0220   60.8070 C.3     0  <0>0        0.0920
     12  C1         8.7970   32.7660   60.4460 C.3     0  <0>0        0.0261
     13  C3        10.8270   33.6310   61.5750 C.ar    0  <0>0       -0.0037
     14  C8        10.8500   32.4500   62.2930 C.ar    0  <0>0        0.0096
     15  C7        11.9830   32.0940   63.0030 C.ar    0  <0>0        0.0679
     16  C6        13.0960   32.9170   62.9890 C.ar    0  <0>0        0.0682
     17 Cl         12.0090   30.6140   63.9110 Cl      0  <0>0       -0.0814
     18  C5        13.0730   34.0960   62.2660 C.ar    0  <0>0        0.0120
     19 Cl         14.5180   32.4710   63.8780 Cl      0  <0>0       -0.0814
     20  C4        11.9410   34.4510   61.5570 C.ar    0  <0>0       -0.0018
@<TRIPOS>BOND
     1     8     7    3
     2     7     6    1
     3     5     6   ar
     4     5     4   ar
     5     6     1   ar
     6     4     3   ar
     7    10     9    1
     8     1     9    1
     9     1     2   ar
    10     9    11    1
    11     3     2   ar
    12    12    11    1
    13    11    13    1
    14    20    13   ar
    15    20    18   ar
    16    13    14   ar
    17    18    16   ar
    18    14    15   ar
    19    16    15   ar
    20    16    19    1
    21    15    17    1
