@<TRIPOS>MOLECULE
ZINC50831444_replica-1.pdb
 20 21 0 0 0
SMALL
GASTEIGER

@<TRIPOS>ATOM
      1  C4        -0.7790   29.8350   56.4730 C.3     0  <0>0        0.1649
      2  C5        -0.7100   30.4470   55.2540 C.2     0  <0>0        0.1124
      3  N2        -0.3220   31.7030   55.2550 N.2     0  <0>0       -0.1562
      4  N3        -0.0370   32.2730   56.3760 N.pl3   0  <0>0       -0.0825
      5  S1        -0.3050   31.0690   57.5100 S.3     0  <0>0        0.0163
      6  C6        -1.0570   29.7230   53.9800 C.3     0  <0>0        0.1869
      7  O1        -0.1500   28.6350   53.7880 O.3     0  <0>0       -0.3501
      8  C7        -0.7500   27.4730   53.2110 C.3     0  <0>0        0.1157
      9  C12        0.2270   26.2990   53.2960 C.3     0  <0>0        0.0272
     10  C11       -0.4150   25.0550   52.6780 C.3     0  <0>0        0.0024
     11  C10       -0.7540   25.3320   51.2120 C.3     0  <0>0        0.0002
     12  C9        -1.7310   26.5060   51.1260 C.3     0  <0>0        0.0025
     13  C8        -1.0880   27.7490   51.7440 C.3     0  <0>0        0.0296
     14  C13        0.5650   26.0230   54.7620 C.3     0  <0>0        0.0024
     15  C14        0.5660   24.5130   55.0100 C.3     0  <0>0        0.0001
     16  N1        -1.1540   28.5280   56.7780 N.3     0  <0>0       -0.2841
     17  H10       -0.9110   27.8030   56.1820 H       0  <0>0        0.1244
     18  C3        -1.9140   28.2500   57.9990 C.3     0  <0>0        0.0695
     19  C2        -2.3580   26.7860   58.0010 C.3     0  <0>0        0.0171
     20  C1        -1.1440   25.8840   58.2330 C.3     0  <0>0        0.0015
@<TRIPOS>BOND
     1    12    11    1
     2    12    13    1
     3    11    10    1
     4    13     8    1
     5    10     9    1
     6     8     9    1
     7     8     7    1
     8     9    14    1
     9     7     6    1
    10     6     2    1
    11    14    15    1
    12     2     3    2
    13     2     1    1
    14     3     4    1
    15    17    16    1
    16     4     5    1
    17     1    16    1
    18     1     5    1
    19    16    18    1
    20    18    19    1
    21    19    20    1
