@<TRIPOS>MOLECULE
ZINC21500031_replica-1.pdb
 21 23 0 0 0
SMALL
GASTEIGER

@<TRIPOS>ATOM
      1  C7        10.4840   35.0950   60.8280 C.ar    0  <0>0        0.0448
      2  C8        10.2730   36.2580   61.5630 C.ar    0  <0>0        0.0174
      3  C9         9.5890   37.3200   61.0130 C.ar    0  <0>0        0.0388
      4  C10        9.1010   37.2390   59.7140 C.ar    0  <0>0        0.1454
      5  C11        9.3140   36.0680   58.9740 C.ar    0  <0>0        0.0387
      6  C12       10.0050   34.9990   59.5330 C.ar    0  <0>0        0.0174
      7  C13        8.6820   36.3050   57.6610 C.ar    0  <0>0        0.0375
      8  C14        8.5480   35.5470   56.5020 C.ar    0  <0>0        0.0031
      9  C15        7.8820   36.0710   55.4150 C.ar    0  <0>0        0.0002
     10  C16        7.3490   37.3490   55.4760 C.ar    0  <0>0        0.0031
     11  C17        7.4770   38.1100   56.6190 C.ar    0  <0>0        0.0375
     12  C18        8.1440   37.5980   57.7260 C.ar    0  <0>0        0.1453
     13  O1         8.4150   38.1150   58.9440 O.2     0  <0>0       -0.4535
     14  N1        11.1810   34.0230   61.3980 N.pl3   0  <0>0       -0.3326
     15  H14       10.7070   33.0330   61.4640 H       0  <0>0        0.1468
     16  C6        12.5400   34.2210   61.9080 C.3     0  <0>0        0.0870
     17  C4        12.7670   33.3160   63.1200 C.3     0  <0>0        0.0195
     18  C5        14.2580   32.9940   63.2440 C.3     0  <0>0        0.0017
     19  C3        11.9790   32.0170   62.9400 C.3     0  <0>0        0.0017
     20  C2        12.8700   30.8260   63.3000 C.3     0  <0>0        0.0001
     21  C1        12.1650   29.9590   64.3460 C.3     0  <0>0        0.0000
@<TRIPOS>BOND
     1     9    10   ar
     2     9     8   ar
     3    10    11   ar
     4     8     7   ar
     5    11    12   ar
     6     7    12   ar
     7     7     5   ar
     8    12    13   ar
     9    13     4   ar
    10     5     6   ar
    11     5     4   ar
    12     6     1   ar
    13     4     3   ar
    14     1    14    1
    15     1     2   ar
    16     3     2   ar
    17    14    15    1
    18    14    16    1
    19    16    17    1
    20    19    17    1
    21    19    20    1
    22    17    18    1
    23    20    21    1
