@<TRIPOS>MOLECULE
ZINC62771963_replica-1.pdb
 21 22 0 0 0
SMALL
GASTEIGER

@<TRIPOS>ATOM
      1  C8         0.1340   27.3660   54.7560 C.ar    0  <0>0        0.0447
      2  C9         0.5630   26.0460   54.7400 C.ar    0  <0>0        0.0166
      3  C10        0.3060   25.2500   53.6410 C.ar    0  <0>0        0.0308
      4  C11       -0.3800   25.7680   52.5550 C.ar    0  <0>0        0.1441
      5  C12       -0.8090   27.0840   52.5680 C.ar    0  <0>0        0.1000
      6  C13       -0.5590   27.8820   53.6670 C.ar    0  <0>0        0.0204
      7  F4        -0.6300   24.9880   51.4810 F       0  <0>0       -0.2042
      8  N1         0.3930   28.1740   55.8670 N.pl3   0  <0>0       -0.3336
      9  H10        0.7450   29.0690   55.7450 H       0  <0>0        0.1468
     10  C2         0.1310   27.6680   57.2170 C.3     0  <0>0        0.0766
     11  C1         1.0130   28.4130   58.2210 C.3     0  <0>0        0.0216
     12  C3        -1.3410   27.8900   57.5680 C.3     0  <0>0        0.0839
     13  C4        -1.8540   29.1050   56.8380 C.ar    0  <0>0        0.1247
     14  O1        -1.2340   30.2940   56.7560 O.2     0  <0>0       -0.4546
     15  C7        -1.9780   31.1380   56.0250 C.ar    0  <0>0        0.1791
     16  C6        -3.0940   30.4950   55.6370 C.ar    0  <0>0        0.0434
     17  C5        -3.0150   29.1850   56.1610 C.ar    0  <0>0        0.0362
     18  C14       -1.5550   27.6450   51.3850 C.3     0  <0>0        0.4207
     19  F1        -2.1510   28.8590   51.7430 F       0  <0>0       -0.1658
     20  F2        -0.6620   27.8570   50.3290 F       0  <0>0       -0.1658
     21  F3        -2.5440   26.7390   50.9850 F       0  <0>0       -0.1658
@<TRIPOS>BOND
     1    20    18    1
     2    21    18    1
     3    18    19    1
     4    18     5    1
     5     7     4    1
     6     4     5   ar
     7     4     3   ar
     8     5     6   ar
     9     3     2   ar
    10     6     1   ar
    11     2     1   ar
    12     1     8    1
    13    16    15   ar
    14    16    17   ar
    15     9     8    1
    16     8    10    1
    17    15    14   ar
    18    17    13   ar
    19    14    13   ar
    20    13    12    1
    21    10    12    1
    22    10    11    1
