@<TRIPOS>MOLECULE
ZINC61850421_replica-1.pdb
 19 19 0 0 0
SMALL
GASTEIGER

@<TRIPOS>ATOM
      1  C7         9.9630   35.7340   60.7140 C.ar    0  <0>0        0.1392
      2  C8         9.6110   37.0760   60.8040 C.ar    0  <0>0        0.0370
      3  C9         9.0660   37.7220   59.7180 C.ar    0  <0>0        0.0057
      4  C10        8.8650   37.0270   58.5220 C.ar    0  <0>0        0.0304
      5  C11        9.2200   35.6760   58.4350 C.ar    0  <0>0        0.0624
      6  C12        9.7710   35.0390   59.5270 C.ar    0  <0>0        0.0483
      7 Cl          8.9730   34.8050   56.9530 Cl      0  <0>0       -0.0821
      8  O1        10.5010   35.1010   61.7890 O.3     0  <0>0       -0.4791
      9  C2        11.8810   35.3490   62.0630 C.3     0  <0>0        0.1660
     10  C1        12.0390   35.7960   63.5180 C.3     0  <0>0        0.0472
     11  C3        12.6850   34.0680   61.8320 C.3     0  <0>0        0.0435
     12  C4        12.6870   33.2300   63.1120 C.3     0  <0>0        0.0036
     13  C5        11.6360   32.1240   63.0000 C.3     0  <0>0        0.0001
     14  C6        14.0690   32.6030   63.3080 C.3     0  <0>0        0.0001
     15  C13        8.2800   37.7140   57.3570 C.2     0  <0>0        0.0789
     16  S1         6.7610   37.2160   56.7430 S.2     0  <0>0       -0.0351
     17  N1         8.9410   38.7330   56.7740 N.am    0  <0>0       -0.3517
     18  H17        9.8330   38.9680   57.0750 H       0  <0>0        0.1428
     19  H18        8.5260   39.2320   56.0550 H       0  <0>0        0.1428
@<TRIPOS>BOND
     1    19    17    1
     2    16    15    2
     3    17    18    1
     4    17    15    1
     5     7     5    1
     6    15     4    1
     7     5     4   ar
     8     5     6   ar
     9     4     3   ar
    10     6     1   ar
    11     3     2   ar
    12     1     2   ar
    13     1     8    1
    14     8     9    1
    15    11     9    1
    16    11    12    1
    17     9    10    1
    18    13    12    1
    19    12    14    1
