@<TRIPOS>MOLECULE
ZINC41345570_replica-1.pdb
 20 21 0 0 0
SMALL
GASTEIGER

@<TRIPOS>ATOM
      1  C5        11.3680   35.0040   61.5820 C.ar    0  <0>0       -0.0228
      2  C6        10.9980   34.2770   60.4680 C.ar    0  <0>0       -0.0046
      3  C7        10.1280   34.8250   59.5420 C.ar    0  <0>0       -0.0046
      4  C8         9.6290   36.1000   59.7330 C.ar    0  <0>0       -0.0220
      5  C9        10.0000   36.8270   60.8490 C.ar    0  <0>0       -0.0046
      6  C10       10.8660   36.2780   61.7760 C.ar    0  <0>0       -0.0046
      7  C11        8.6830   36.6980   58.7240 C.3     0  <0>0        0.0314
      8  C12        7.3010   36.0610   58.8800 C.3     0  <0>0        0.0894
      9  C13        6.8780   35.4490   57.5700 C.2     0  <0>0        0.2228
     10  O1         6.1660   36.0720   56.8120 O.2     0  <0>0       -0.2751
     11  N1         7.2930   34.2100   57.2400 N.am    0  <0>0       -0.3026
     12  C14        6.8820   33.6150   55.9660 C.3     0  <0>0        0.1107
     13  H17        7.8630   33.7110   57.8460 H       0  <0>0        0.1495
     14  C15        8.5780   38.2070   58.9540 C.3     0  <0>0        0.0045
     15  C17        7.9120   39.0440   57.8610 C.3     0  <0>0        0.0003
     16  C16        7.1840   38.7920   59.1820 C.3     0  <0>0        0.0003
     17  C2        12.3160   34.4080   62.5910 C.3     0  <0>0        0.0189
     18  C1        12.4150   35.3320   63.8060 C.3     0  <0>0        0.0044
     19  C3        13.6990   34.2460   61.9580 C.3     0  <0>0        0.0044
     20  C4        11.7940   33.0390   63.0320 C.3     0  <0>0        0.0044
@<TRIPOS>BOND
     1    12    11    1
     2    10     9    2
     3    11     9   am
     4    11    13    1
     5     9     8    1
     6    15    14    1
     7    15    16    1
     8     7     8    1
     9     7    14    1
    10     7     4    1
    11    14    16    1
    12     3     4   ar
    13     3     2   ar
    14     4     5   ar
    15     2     1   ar
    16     5     6   ar
    17     1     6   ar
    18     1    17    1
    19    19    17    1
    20    17    20    1
    21    17    18    1
