@<TRIPOS>MOLECULE
ZINC46566980_replica-1.pdb
 21 22 0 0 0
SMALL
GASTEIGER

@<TRIPOS>ATOM
      1  C6         9.2440   34.5380   58.7690 C.3     0  <0>0        0.1229
      2  N1         8.3090   35.5440   58.2600 N.am    0  <0>0       -0.2982
      3  C5         8.1860   35.7390   56.9310 C.2     0  <0>0        0.2224
      4  O1         8.8490   35.0790   56.1580 O.2     0  <0>0       -0.2751
      5  H11        7.7790   36.0710   58.8780 H       0  <0>0        0.1500
      6  C3         7.2240   36.7730   56.4070 C.3     0  <0>0        0.0765
      7  C4         5.8040   36.2050   56.4260 C.3     0  <0>0        0.0096
      8  C2         7.2860   38.0210   57.2920 C.3     0  <0>0        0.0091
      9  C1         8.5960   38.7670   57.0310 C.3     0  <0>0        0.0005
     10  C7         9.9510   35.0780   59.9850 C.ar    0  <0>0        0.0003
     11  C12        9.6850   36.3620   60.4240 C.ar    0  <0>0       -0.0000
     12  C11       10.3290   36.8570   61.5420 C.ar    0  <0>0        0.0294
     13  C10       11.2470   36.0710   62.2180 C.ar    0  <0>0        0.1401
     14  C9        11.5150   34.7870   61.7740 C.ar    0  <0>0        0.0294
     15  F1        11.8800   36.5560   63.3080 F       0  <0>0       -0.2042
     16  C8        10.8680   34.2910   60.6580 C.ar    0  <0>0       -0.0000
     17  C13        8.4850   33.2900   59.1420 C.ar    0  <0>0        0.0292
     18  S1         7.1180   33.1030   60.2750 S.2     0  <0>0       -0.0888
     19  C16        6.8760   31.3440   60.0890 C.ar    0  <0>0        0.0352
     20  C15        7.8420   31.0210   59.1940 C.ar    0  <0>0        0.0072
     21  C14        8.6670   32.0190   58.7100 C.ar    0  <0>0        0.0046
@<TRIPOS>BOND
     1     4     3    2
     2     6     7    1
     3     6     3    1
     4     6     8    1
     5     3     2   am
     6     9     8    1
     7     2     1    1
     8     2     5    1
     9    21    17   ar
    10    21    20   ar
    11     1    17    1
    12     1    10    1
    13    17    18   ar
    14    20    19   ar
    15    10    11   ar
    16    10    16   ar
    17    19    18   ar
    18    11    12   ar
    19    16    14   ar
    20    12    13   ar
    21    14    13   ar
    22    13    15    1
