@<TRIPOS>MOLECULE
ZINC12603194_replica-1.pdb
 26 27 0 0 0
SMALL
GASTEIGER

@<TRIPOS>ATOM
      1  C10        7.8530   37.6700   59.2070 C.3     0  <0>0        0.2411
      2  C11        7.8480   38.6150   58.0050 C.3     0  <0>0        0.0574
      3  O3         8.6180   36.5040   58.8940 O.3     0  <0>0       -0.4700
      4  C7         9.5330   36.1010   59.8100 C.ar    0  <0>0        0.1391
      5  C6         9.8410   36.9230   60.8890 C.ar    0  <0>0        0.0371
      6  C5        10.7730   36.5210   61.8190 C.ar    0  <0>0        0.0096
      7  C4        11.4020   35.2810   61.6840 C.ar    0  <0>0        0.0758
      8  C9        11.0860   34.4550   60.6010 C.ar    0  <0>0        0.0096
      9  C8        10.1560   34.8660   59.6730 C.ar    0  <0>0        0.0371
     10  C3        12.3970   34.8430   62.6810 C.2     0  <0>0        0.3412
     11  O2        12.2990   35.2060   63.8370 O.2     0  <0>0       -0.2449
     12  O1        13.4140   34.0400   62.3110 O.3     0  <0>0       -0.4454
     13  C2        13.7690   32.9640   63.2190 C.3     0  <0>0        0.2089
     14  C1        12.7740   31.8130   63.0600 C.3     0  <0>0        0.0513
     15  C12        6.4390   37.2700   59.5380 C.2     0  <0>0        0.2626
     16  O4         5.7880   37.9320   60.3190 O.2     0  <0>0       -0.2712
     17  N1         5.8960   36.1750   58.9670 N.am    0  <0>0       -0.3031
     18  H17        6.4160   35.6460   58.3430 H       0  <0>0        0.1495
     19  C13        4.5210   35.7870   59.2890 C.3     0  <0>0        0.0716
     20  C18        4.4880   34.3070   59.6780 C.3     0  <0>0        0.0180
     21  C17        3.0510   33.9010   60.0150 C.3     0  <0>0        0.0016
     22  C19        5.3810   34.0800   60.8990 C.3     0  <0>0        0.0017
     23  C16        2.1580   34.1270   58.7930 C.3     0  <0>0        0.0001
     24  C20        3.0180   32.4210   60.4040 C.3     0  <0>0        0.0001
     25  C15        2.1920   35.6070   58.4050 C.3     0  <0>0        0.0017
     26  C14        3.6270   36.0140   58.0680 C.3     0  <0>0        0.0196
@<TRIPOS>BOND
     1     2     1    1
     2    26    25    1
     3    26    19    1
     4    18    17    1
     5    25    23    1
     6    23    21    1
     7     3     1    1
     8     3     4    1
     9    17    19    1
    10    17    15   am
    11     1    15    1
    12    19    20    1
    13    15    16    2
    14     9     4   ar
    15     9     8   ar
    16    20    21    1
    17    20    22    1
    18     4     5   ar
    19    21    24    1
    20     8     7   ar
    21     5     6   ar
    22     7     6   ar
    23     7    10    1
    24    12    10    1
    25    12    13    1
    26    10    11    2
    27    14    13    1
