@<TRIPOS>MOLECULE
ZINC11894816_replica-1.pdb
 26 28 0 0 0
SMALL
GASTEIGER

@<TRIPOS>ATOM
      1  C1        -1.1970   26.1030   51.1420 C.ar    0  <0>0        0.0000
      2  C2        -1.7500   27.3810   51.1160 C.ar    0  <0>0        0.0000
      3  C3        -1.5910   28.2340   52.1670 C.ar    0  <0>0        0.0002
      4  C4        -0.8530   27.8250   53.2840 C.ar    0  <0>0        0.0046
      5  C5        -0.2840   26.5290   53.3120 C.ar    0  <0>0        0.0003
      6  C6        -0.4720   25.6750   52.2130 C.ar    0  <0>0        0.0000
      7  C7         0.4580   26.1210   54.4340 C.ar    0  <0>0        0.0031
      8  C8         0.6350   26.9540   55.4920 C.ar    0  <0>0        0.0370
      9  C9         0.0940   28.2400   55.5140 C.ar    0  <0>0        0.1403
     10  C10       -0.6530   28.7100   54.4310 C.ar    0  <0>0        0.0535
     11  O1         0.2960   29.0390   56.5910 O.3     0  <0>0       -0.4714
     12  C12       -0.3060   28.6320   57.8220 C.3     0  <0>0        0.2525
     13  C13       -0.5350   29.8580   58.7070 C.3     0  <0>0        0.2525
     14  O2         0.7010   30.5550   58.8830 O.3     0  <0>0       -0.4706
     15  C14        0.6720   31.9060   58.7380 C.ar    0  <0>0        0.1492
     16  C19        0.6700   32.7260   59.8580 C.ar    0  <0>0        0.0915
     17  C18        0.6410   34.1000   59.7070 C.ar    0  <0>0        0.0145
     18 Cl          0.7040   32.0270   61.4470 Cl      0  <0>0       -0.0791
     19  C17        0.6150   34.6570   58.4420 C.ar    0  <0>0        0.0011
     20  C16        0.6170   33.8420   57.3250 C.ar    0  <0>0        0.0032
     21  C15        0.6520   32.4680   57.4690 C.ar    0  <0>0        0.0378
     22  C11       -1.2250   30.0630   54.4450 C.2     0  <0>0        0.0810
     23  S1        -2.8960   30.2810   54.7470 S.2     0  <0>0       -0.0351
     24  N1        -0.4340   31.1310   54.2210 N.am    0  <0>0       -0.3516
     25  H7         0.4950   31.0030   53.9770 H       0  <0>0        0.1428
     26  H8        -0.7970   32.0270   54.3030 H       0  <0>0        0.1428
@<TRIPOS>BOND
     1     2     1   ar
     2     2     3   ar
     3     1     6   ar
     4     3     4   ar
     5     6     5   ar
     6     4     5   ar
     7     4    10   ar
     8     5     7   ar
     9    25    24    1
    10    24    26    1
    11    24    22    1
    12    10    22    1
    13    10     9   ar
    14     7     8   ar
    15    22    23    2
    16     8     9   ar
    17     9    11    1
    18    11    12    1
    19    20    21   ar
    20    20    19   ar
    21    21    15   ar
    22    12    13    1
    23    19    17   ar
    24    13    14    1
    25    15    14    1
    26    15    16   ar
    27    17    16   ar
    28    16    18    1
