@<TRIPOS>MOLECULE
ZINC13089253_replica-1.pdb
 26 27 0 0 0
SMALL
GASTEIGER

@<TRIPOS>ATOM
      1  N1         0.2860   29.4270   55.3420 N.3     0  <0>0       -0.1766
      2  H16        1.1930   29.5370   55.0120 H       0  <0>0        0.1491
      3  C5        -0.3100   28.0910   55.4160 C.3     0  <0>0        0.0976
      4  C4         0.6380   27.1500   56.1600 C.3     0  <0>0        0.0219
      5  C2        -0.0660   26.5920   57.3990 C.3     0  <0>0        0.0017
      6  C1        -1.4940   27.1330   57.4630 C.3     0  <0>0        0.0001
      7  C3        -0.1020   25.0640   57.3190 C.3     0  <0>0        0.0001
      8  C6        -0.5450   27.5690   54.0210 C.ar    0  <0>0       -0.0064
      9  C11       -1.2330   28.3370   53.1030 C.ar    0  <0>0       -0.0029
     10  C10       -1.4490   27.8580   51.8250 C.ar    0  <0>0       -0.0003
     11  C9        -0.9750   26.6100   51.4640 C.ar    0  <0>0       -0.0000
     12  C8        -0.2860   25.8420   52.3830 C.ar    0  <0>0       -0.0003
     13  C7        -0.0660   26.3230   53.6610 C.ar    0  <0>0       -0.0029
     14  S1        -0.5850   30.7510   55.8220 S.O2    0  <0>0        0.0605
     15  O1        -1.9210   30.3080   56.0180 O.2     0  <0>0       -0.1530
     16  O2        -0.2560   31.8020   54.9240 O.2     0  <0>0       -0.1530
     17  C12        0.0240   31.2310   57.4050 C.ar    0  <0>0        0.1222
     18  C17        0.5580   32.4890   57.5830 C.ar    0  <0>0        0.0273
     19  C16        1.0410   32.8680   58.8370 C.ar    0  <0>0        0.0916
     20  C15        0.9780   31.9680   59.9040 C.ar    0  <0>0        0.0641
     21  C14        0.4400   30.7100   59.7100 C.ar    0  <0>0        0.0130
     22 Cl          1.5760   32.4280   61.4670 Cl      0  <0>0       -0.0820
     23  C13       -0.0360   30.3430   58.4650 C.ar    0  <0>0        0.0208
     24  C18        1.6140   34.2140   59.0350 C.2     0  <0>0        0.3886
     25  O3         0.8890   35.1460   59.3240 O.co2   0  <0>0       -0.2405
     26  O4         2.9390   34.4100   58.8970 O.co2   0  <0>0       -0.2405
@<TRIPOS>BOND
     1    11    10   ar
     2    11    12   ar
     3    10     9   ar
     4    12    13   ar
     5     9     8   ar
     6    13     8   ar
     7     8     3    1
     8    16    14    2
     9     2     1    1
    10     1     3    1
    11     1    14    1
    12     3     4    1
    13    14    15    2
    14    14    17    1
    15     4     5    1
    16     7     5    1
    17     5     6    1
    18    17    18   ar
    19    17    23   ar
    20    18    19   ar
    21    23    21   ar
    22    19    24    1
    23    19    20   ar
    24    26    24   ar
    25    24    25   ar
    26    21    20   ar
    27    20    22    1
