@<TRIPOS>MOLECULE
ZINC00696675_replica-1.pdb
 27 29 0 0 0
SMALL
GASTEIGER

@<TRIPOS>ATOM
      1  C11       -1.0580   29.9880   57.0670 C.3     0  <0>0        0.0612
      2  C10       -1.1110   29.4300   55.6690 C.ar    0  <0>0        0.0009
      3  C7        -0.5370   28.1610   55.2140 C.ar    0  <0>0        0.0131
      4  C6         0.1770   27.1400   55.8430 C.ar    0  <0>0        0.0012
      5  C8        -0.8360   28.0690   53.8420 C.ar    0  <0>0        0.0523
      6  C5         0.5840   26.0530   55.1200 C.ar    0  <0>0       -0.0002
      7  C4         0.2870   25.9540   53.7680 C.ar    0  <0>0       -0.0028
      8  C3        -0.4120   26.9530   53.1280 C.ar    0  <0>0       -0.0066
      9  N1        -1.5380   29.2020   53.5030 N.ar    0  <0>0       -0.3525
     10  H1        -1.8740   29.4050   52.6150 H       0  <0>0        0.1660
     11  C9        -1.6930   30.0020   54.6020 C.ar    0  <0>0        0.0684
     12  C2        -0.7230   26.8360   51.6580 C.3     0  <0>0        0.0278
     13  C1        -0.9390   25.3640   51.2980 C.3     0  <0>0        0.0051
     14  C12        0.3780   30.3980   57.4000 C.3     0  <0>0        0.0943
     15  C13        0.4100   31.8550   57.7800 C.2     0  <0>0        0.2231
     16  O1         0.0690   32.6990   56.9780 O.2     0  <0>0       -0.2751
     17  N2         0.8180   32.2220   59.0110 N.am    0  <0>0       -0.3059
     18  H15        1.0910   31.5470   59.6530 H       0  <0>0        0.1494
     19  C14        0.8490   33.6390   59.3810 C.3     0  <0>0        0.0716
     20  C15        2.2940   34.1410   59.3590 C.3     0  <0>0        0.0213
     21  C16        0.2690   33.8130   60.7860 C.3     0  <0>0        0.0196
     22  C17        0.8410   32.7360   61.7110 C.3     0  <0>0        0.0017
     23  C18       -1.5190   28.9370   58.0440 C.ar    0  <0>0        0.0116
     24  S1        -0.8760   28.5480   59.6640 S.2     0  <0>0       -0.0904
     25  C21       -1.9980   27.2210   60.0680 C.ar    0  <0>0        0.0351
     26  C20       -2.7730   27.1590   58.9570 C.ar    0  <0>0        0.0072
     27  C19       -2.5270   28.0390   57.9200 C.ar    0  <0>0        0.0030
@<TRIPOS>BOND
     1    13    12    1
     2    12     8    1
     3    10     9    1
     4     8     7   ar
     5     8     5   ar
     6     9     5   ar
     7     9    11   ar
     8     7     6   ar
     9     5     3   ar
    10    11     2   ar
    11     6     4   ar
    12     3     2   ar
    13     3     4   ar
    14     2     1    1
    15    16    15    2
    16     1    14    1
    17     1    23    1
    18    14    15    1
    19    15    17   am
    20    27    23   ar
    21    27    26   ar
    22    23    24   ar
    23    26    25   ar
    24    17    19    1
    25    17    18    1
    26    20    19    1
    27    19    21    1
    28    24    25   ar
    29    21    22    1
