@<TRIPOS>MOLECULE
ZINC21639645_replica-1.pdb
 27 30 0 0 0
SMALL
GASTEIGER

@<TRIPOS>ATOM
      1  N1        11.7510   35.1780   62.3580 N.pl3   0  <0>0       -0.2451
      2  C7        10.9190   35.2760   61.2540 C.1     0  <0>0        0.1483
      3  N2        10.7580   34.2190   60.4690 N.2     0  <0>0       -0.1700
      4  C8         9.9680   34.2810   59.4120 C.2     0  <0>0        0.1110
      5  C9         9.3140   35.4700   59.1210 C.2     0  <0>0        0.0402
      6  C10        9.5060   36.5520   59.9550 C.2     0  <0>0        0.1219
      7  N3        10.3090   36.4230   61.0030 N.2     0  <0>0       -0.3421
      8  C11        8.8240   37.8700   59.7100 C.3     0  <0>0        0.0770
      9  C12        8.3020   37.9260   58.2730 C.3     0  <0>0        0.0801
     10  N4         7.5290   36.7030   58.0060 N.3     0  <0>0       -0.2647
     11  C13        8.4240   35.5450   57.9110 C.3     0  <0>0        0.1033
     12  H5        11.9760   36.0730   62.9560 H       0  <0>0        0.1648
     13  C5        12.3030   33.9420   62.7100 C.ar    0  <0>0        0.0849
     14  C4        13.6820   33.7630   62.6890 C.ar    0  <0>0        0.1540
     15  C3        14.2240   32.5420   63.0440 C.ar    0  <0>0        0.0309
     16  F1        14.4910   34.7810   62.3220 F       0  <0>0       -0.2028
     17  C2        13.3960   31.5000   63.4200 C.ar    0  <0>0        0.0024
     18  C1        12.0250   31.6750   63.4410 C.ar    0  <0>0        0.0014
     19  C6        11.4760   32.8930   63.0880 C.ar    0  <0>0        0.0175
     20  C14        6.7220   36.8460   56.7860 C.3     0  <0>0        0.0994
     21  C15        5.3040   36.4240   57.0700 C.ar    0  <0>0       -0.0061
     22  C20        4.3780   36.3750   56.0440 C.ar    0  <0>0       -0.0024
     23  C19        3.0770   35.9880   56.3040 C.ar    0  <0>0        0.0064
     24  C18        2.7010   35.6490   57.5920 C.ar    0  <0>0        0.0345
     25  C17        3.6280   35.6980   58.6180 C.ar    0  <0>0        0.0064
     26 Br          0.9210   35.1190   57.9490 Br      0  <0>0       -0.0490
     27  C16        4.9290   36.0800   58.3560 C.ar    0  <0>0       -0.0024
@<TRIPOS>BOND
     1    22    23   ar
     2    22    21   ar
     3    23    24   ar
     4    20    21    1
     5    20    10    1
     6    21    27   ar
     7    24    26    1
     8    24    25   ar
     9    11    10    1
    10    11     5    1
    11    10     9    1
    12     9     8    1
    13    27    25   ar
    14     5     4    2
    15     5     6    1
    16     4     3    1
    17     8     6    1
    18     6     7    2
    19     3     2    2
    20     7     2    2
    21     2     1    1
    22    16    14    1
    23     1    13    1
    24     1    12    1
    25    14    13   ar
    26    14    15   ar
    27    13    19   ar
    28    15    17   ar
    29    19    18   ar
    30    17    18   ar
