@<TRIPOS>MOLECULE
ZINC56778695_replica-1.pdb
 31 33 0 0 0
SMALL
GASTEIGER

@<TRIPOS>ATOM
      1  N1         5.9650   33.3510   57.1670 N.am    0  <0>0       -0.2866
      2  C9         4.8750   33.3010   56.3750 C.2     0  <0>0        0.3042
      3  O1         4.9630   33.5970   55.1990 O.2     0  <0>0       -0.2526
      4  N2         3.6870   32.9220   56.8880 N.am    0  <0>0       -0.2625
      5  C10        3.5800   32.5650   58.3050 C.3     0  <0>0        0.1164
      6  H9         5.8930   33.1160   58.1050 H       0  <0>0        0.1512
      7  C11        2.5020   32.8660   56.0280 C.3     0  <0>0        0.0954
      8  C12        1.5290   31.8160   56.5680 C.3     0  <0>0        0.0278
      9  C13        0.0920   32.3000   56.3610 C.3     0  <0>0        0.0470
     10  C14       -0.6700   31.2800   55.5540 C.ar    0  <0>0        0.0531
     11  N4        -2.0130   31.1960   55.4450 N.ar    0  <0>0       -0.2798
     12  N3        -2.3150   30.1170   54.6040 N.ar    0  <0>0       -0.1730
     13  H2        -2.6570   31.7820   55.8720 H       0  <0>0        0.1886
     14  C16       -1.1830   29.5630   54.2260 C.ar    0  <0>0        0.1018
     15  C15       -0.1280   30.2850   54.8170 C.ar    0  <0>0        0.0349
     16  C17       -1.0420   28.3850   53.3340 C.ar    0  <0>0        0.0194
     17  C22       -1.6820   28.3640   52.0970 C.ar    0  <0>0        0.0016
     18  C21       -1.5430   27.2680   51.2700 C.ar    0  <0>0        0.0000
     19  C20       -0.7800   26.1870   51.6710 C.ar    0  <0>0        0.0000
     20  C19       -0.1470   26.2000   52.9010 C.ar    0  <0>0        0.0000
     21  C18       -0.2740   27.2930   53.7340 C.ar    0  <0>0        0.0016
     22  C2         7.2550   33.7630   56.6100 C.3     0  <0>0        0.0978
     23  C1         8.2310   32.5860   56.6590 C.3     0  <0>0        0.0263
     24  C3         7.8080   34.9080   57.4180 C.ar    0  <0>0        0.0232
     25  C8         7.2690   36.1760   57.2810 C.ar    0  <0>0        0.1399
     26  C7         7.7740   37.2270   58.0280 C.ar    0  <0>0        0.0590
     27  F1         6.2480   36.3870   56.4230 F       0  <0>0       -0.2044
     28  C6         8.8250   37.0110   58.9030 C.ar    0  <0>0        0.1424
     29  C5         9.3660   35.7420   59.0340 C.ar    0  <0>0        0.0295
     30  F2         9.3210   38.0360   59.6300 F       0  <0>0       -0.2041
     31  C4         8.8570   34.6930   58.2930 C.ar    0  <0>0        0.0019
@<TRIPOS>BOND
     1    18    19   ar
     2    18    17   ar
     3    19    20   ar
     4    17    16   ar
     5    20    21   ar
     6    16    21   ar
     7    16    14    1
     8    14    12   ar
     9    14    15   ar
    10    12    11   ar
    11    15    10   ar
    12     3     2    2
    13    11    10   ar
    14    11    13    1
    15    10     9    1
    16     7     8    1
    17     7     4    1
    18     9     8    1
    19     2     4   am
    20     2     1   am
    21    27    25    1
    22    22    23    1
    23    22     1    1
    24    22    24    1
    25     4     5    1
    26     1     6    1
    27    25    24   ar
    28    25    26   ar
    29    24    31   ar
    30    26    28   ar
    31    31    29   ar
    32    28    29   ar
    33    28    30    1
