@<TRIPOS>MOLECULE
ZINC04649151_replica-1.pdb
 24 27 0 0 0
SMALL
GASTEIGER

@<TRIPOS>ATOM
      1  C1         8.3130   34.6760   57.4780 C.3     0  <0>0        0.0354
      2  C2         8.4470   34.1650   58.9150 C.3     0  <0>0        0.1509
      3  C3         8.3890   35.3410   59.9100 C.3     0  <0>0        0.1579
      4  O1         7.2320   35.0730   60.7350 O.3     0  <0>0       -0.3197
      5  C4         6.4120   34.2050   59.9370 C.3     0  <0>0        0.2610
      6  O2         7.3210   33.3260   59.2560 O.3     0  <0>0       -0.3250
      7  C5         5.2920   33.5250   60.6710 C.2     0  <0>0        0.0130
      8  C6         4.4280   34.1600   59.8680 C.2     0  <0>0        0.0150
      9  C7         5.4070   34.8950   59.0610 C.2     0  <0>0        0.2234
     10  O3         5.4050   35.6790   58.1350 O.2     0  <0>0       -0.2862
     11  C8         2.9210   34.1300   59.8130 C.3     0  <0>0        0.0337
     12  C9         5.1850   32.5500   61.8160 C.3     0  <0>0        0.0315
     13  C10        9.6380   35.3760   60.7520 C.ar    0  <0>0        0.0083
     14  C15        9.9550   36.5120   61.4730 C.ar    0  <0>0       -0.0016
     15  C14       11.1000   36.5430   62.2460 C.ar    0  <0>0       -0.0002
     16  C13       11.9290   35.4390   62.2980 C.ar    0  <0>0       -0.0000
     17  C12       11.6140   34.3030   61.5770 C.ar    0  <0>0       -0.0002
     18  C11       10.4650   34.2700   60.8080 C.ar    0  <0>0       -0.0016
     19  C16        8.2170   36.6440   59.1730 C.ar    0  <0>0        0.0083
     20  C21        7.4310   37.6440   59.7110 C.ar    0  <0>0       -0.0016
     21  C20        7.2720   38.8390   59.0340 C.ar    0  <0>0       -0.0002
     22  C19        7.9020   39.0330   57.8180 C.ar    0  <0>0       -0.0000
     23  C18        8.6900   38.0330   57.2800 C.ar    0  <0>0       -0.0002
     24  C17        8.8500   36.8400   57.9590 C.ar    0  <0>0       -0.0016
@<TRIPOS>BOND
     1    23    22   ar
     2    23    24   ar
     3     1     2    1
     4    22    21   ar
     5    24    19   ar
     6    10     9    2
     7     2     6    1
     8     2     3    1
     9    21    20   ar
    10     9     8    1
    11     9     5    1
    12    19    20   ar
    13    19     3    1
    14     6     5    1
    15    11     8    1
    16     8     7    2
    17     3     4    1
    18     3    13    1
    19     5     7    1
    20     5     4    1
    21     7    12    1
    22    13    18   ar
    23    13    14   ar
    24    18    17   ar
    25    14    15   ar
    26    17    16   ar
    27    15    16   ar
