@<TRIPOS>MOLECULE
ZINC08685106_replica-1.pdb
 24 25 0 0 0
SMALL
GASTEIGER

@<TRIPOS>ATOM
      1  N1         9.4140   34.3730   57.8130 N.am    0  <0>0       -0.2964
      2  H24       10.2470   34.1810   57.3550 H       0  <0>0        0.1538
      3  C8         9.2070   35.6310   58.3890 C.ar    0  <0>0        0.0414
      4  C3         8.5130   36.6100   57.6910 C.ar    0  <0>0       -0.0090
      5  C4         8.3060   37.8490   58.2650 C.ar    0  <0>0       -0.0031
      6  C5         8.7920   38.1160   59.5310 C.ar    0  <0>0       -0.0006
      7  C6         9.4880   37.1460   60.2270 C.ar    0  <0>0       -0.0031
      8  C7         9.6990   35.9040   59.6590 C.ar    0  <0>0       -0.0090
      9  C2         7.9830   36.3200   56.3100 C.3     0  <0>0        0.0276
     10  C1         7.1130   37.4890   55.8420 C.3     0  <0>0        0.0051
     11  C18       10.4580   34.8460   60.4180 C.3     0  <0>0        0.0276
     12  C19       11.1100   35.4740   61.6520 C.3     0  <0>0        0.0051
     13  C9         8.4420   33.4140   57.8950 C.2     0  <0>0        0.1353
     14  S1         7.7970   32.7660   56.5100 S.2     0  <0>0       -0.0185
     15  N2         8.0030   32.9890   59.1170 N.am    0  <0>0       -0.3138
     16  H10        8.6410   32.7120   59.7930 H       0  <0>0        0.1487
     17  C10        6.5670   32.9500   59.4070 C.3     0  <0>0        0.0932
     18  C11        6.3340   32.2180   60.7300 C.3     0  <0>0        0.0261
     19  C12        6.0380   34.3570   59.5110 C.ar    0  <0>0       -0.0045
     20  C17        6.3290   35.1240   60.6240 C.ar    0  <0>0       -0.0027
     21  C16        5.8470   36.4170   60.7190 C.ar    0  <0>0       -0.0003
     22  C15        5.0670   36.9380   59.7030 C.ar    0  <0>0       -0.0000
     23  C14        4.7730   36.1700   58.5920 C.ar    0  <0>0       -0.0003
     24  C13        5.2580   34.8790   58.4970 C.ar    0  <0>0       -0.0027
@<TRIPOS>BOND
     1    10     9    1
     2     9     4    1
     3    14    13    2
     4     2     1    1
     5     4     5   ar
     6     4     3   ar
     7     1    13    1
     8     1     3    1
     9    13    15    1
    10     5     6   ar
    11     3     8   ar
    12    24    23   ar
    13    24    19   ar
    14    23    22   ar
    15    15    17    1
    16    15    16    1
    17    17    19    1
    18    17    18    1
    19    19    20   ar
    20     6     7   ar
    21     8     7   ar
    22     8    11    1
    23    22    21   ar
    24    11    12    1
    25    20    21   ar
