@<TRIPOS>MOLECULE
ZINC34731564_replica-1.pdb
 28 31 0 0 0
SMALL
GASTEIGER

@<TRIPOS>ATOM
      1  C3         2.7820   34.9100   58.8870 C.2     0  <0>0       -0.0398
      2  C4         2.0580   34.3440   59.8350 C.3     0  <0>0        0.0408
      3  C5         2.9910   33.5030   60.6750 C.2     0  <0>0       -0.0159
      4  C6         4.3420   33.6860   60.0510 C.ar    0  <0>0        0.0265
      5  C7         4.2160   34.5180   58.9840 C.ar    0  <0>0        0.0046
      6  C8         5.4590   34.8110   58.2360 C.ar    0  <0>0        0.0783
      7  C9         5.6270   35.6750   57.0490 C.ar    0  <0>0        0.2663
      8  O1         4.6700   36.2520   56.5660 O.2     0  <0>0       -0.2668
      9  N1         6.8510   35.8140   56.5090 N.ar    0  <0>0       -0.2445
     10  C10        7.9260   35.1900   57.0180 C.ar    0  <0>0        0.3346
     11  O2         9.0110   35.3480   56.4920 O.2     0  <0>0       -0.2462
     12  N2         7.8260   34.3910   58.0990 N.ar    0  <0>0       -0.2715
     13  C11        6.6150   34.1980   58.7060 C.ar    0  <0>0        0.0987
     14  S1         6.0630   33.2700   60.1120 S.2     0  <0>0       -0.0698
     15  C22        0.5750   34.5070   60.0420 C.3     0  <0>0        0.0091
     16  C12        9.0200   33.7270   58.6270 C.3     0  <0>0        0.1377
     17  C13        9.6400   34.5850   59.6990 C.ar    0  <0>0        0.0007
     18  C18       10.4720   34.0140   60.6440 C.ar    0  <0>0       -0.0001
     19  C17       11.0460   34.8000   61.6250 C.ar    0  <0>0        0.0294
     20  C16       10.7790   36.1590   61.6680 C.ar    0  <0>0        0.1401
     21  C15        9.9420   36.7280   60.7230 C.ar    0  <0>0        0.0294
     22  F1        11.3360   36.9280   62.6280 F       0  <0>0       -0.2042
     23  C14        9.3740   35.9400   59.7390 C.ar    0  <0>0       -0.0001
     24  C19        7.0160   36.6700   55.3320 C.3     0  <0>0        0.1400
     25  C20        7.0290   38.1150   55.7600 C.2     0  <0>0       -0.0015
     26  C21        7.9090   38.5310   56.6380 C.2     0  <0>0       -0.0029
     27  C2         2.2250   35.8330   57.8330 C.3     0  <0>0        0.0224
     28  C1         1.5960   35.0040   56.7100 C.3     0  <0>0        0.0047
@<TRIPOS>BOND
     1    24    25    1
     2    24     9    1
     3    25    26    2
     4    11    10    2
     5     9    10   ar
     6     9     7   ar
     7     8     7    2
     8    28    27    1
     9    10    12   ar
    10     7     6   ar
    11    27     1    1
    12    12    16    1
    13    12    13   ar
    14     6    13   ar
    15     6     5   ar
    16    16    17    1
    17    13    14   ar
    18     1     5    2
    19     1     2    1
    20     5     4   ar
    21    17    23   ar
    22    17    18   ar
    23    23    21   ar
    24     2    15    1
    25     2     3    1
    26     4    14   ar
    27     4     3    2
    28    18    19   ar
    29    21    20   ar
    30    19    20   ar
    31    20    22    1
