@<TRIPOS>MOLECULE
ZINC37317806_replica-1.pdb
 23 25 0 0 0
SMALL
GASTEIGER

@<TRIPOS>ATOM
      1  C9        10.3040   35.4530   60.2750 C.ar    0  <0>0        0.0449
      2  C10       10.1400   36.6620   60.9410 C.ar    0  <0>0        0.0143
      3  C11       10.8100   36.8990   62.1250 C.ar    0  <0>0        0.0013
      4  C12       11.6470   35.9370   62.6550 C.ar    0  <0>0        0.0016
      5  C13       11.8170   34.7200   61.9950 C.ar    0  <0>0        0.0183
      6  C14       11.1370   34.4780   60.8030 C.ar    0  <0>0        0.0158
      7  N1         9.6240   35.2160   59.0770 N.pl3   0  <0>0       -0.3302
      8  H13       10.1040   34.8760   58.3070 H       0  <0>0        0.1471
      9  C4         8.1860   35.4830   58.9870 C.3     0  <0>0        0.0978
     10  C2         7.4490   34.1890   58.6400 C.3     0  <0>0        0.0226
     11  C1         8.4130   33.2200   57.9510 C.3     0  <0>0        0.0021
     12  C3         6.9110   33.5480   59.9200 C.3     0  <0>0        0.0021
     13  C5         7.9330   36.5100   57.9130 C.ar    0  <0>0        0.0250
     14  S1         6.7870   36.4470   56.5460 S.2     0  <0>0       -0.0892
     15  C8         7.1610   38.0400   55.8320 C.ar    0  <0>0        0.0352
     16  C7         8.1240   38.5020   56.6650 C.ar    0  <0>0        0.0072
     17  C6         8.5190   37.7180   57.7320 C.ar    0  <0>0        0.0043
     18  C15       12.7140   33.6880   62.5610 C.ar    0  <0>0        0.0755
     19  N3        12.3420   32.4620   63.0270 N.ar    0  <0>0       -0.2757
     20  N2        13.4960   31.8050   63.4690 N.ar    0  <0>0       -0.1711
     21  H2        11.4380   32.1080   63.0470 H       0  <0>0        0.1889
     22  C17       14.5210   32.5980   63.2870 C.ar    0  <0>0        0.1214
     23  C16       14.0670   33.7890   62.7190 C.ar    0  <0>0        0.0409
@<TRIPOS>BOND
     1    15    14   ar
     2    15    16   ar
     3    14    13   ar
     4    16    17   ar
     5    17    13   ar
     6    13     9    1
     7    11    10    1
     8     8     7    1
     9    10     9    1
    10    10    12    1
    11     9     7    1
    12     7     1    1
    13     1     6   ar
    14     1     2   ar
    15     6     5   ar
    16     2     3   ar
    17     5    18    1
    18     5     4   ar
    19     3     4   ar
    20    18    23   ar
    21    18    19   ar
    22    23    22   ar
    23    19    21    1
    24    19    20   ar
    25    22    20   ar
