@<TRIPOS>MOLECULE
ZINC03264990_replica-1.pdb
 23 25 0 0 0
SMALL
GASTEIGER

@<TRIPOS>ATOM
      1  C5         0.1830   27.2940   54.8420 C.2     0  <0>0        0.0868
      2  C6        -0.3680   26.9510   53.5140 C.ar    0  <0>0        0.0164
      3  C7        -0.3590   25.7730   52.7700 C.ar    0  <0>0        0.0013
      4  C8        -0.9650   25.7370   51.5320 C.ar    0  <0>0        0.0000
      5  C9        -1.5840   26.8670   51.0220 C.ar    0  <0>0       -0.0000
      6  C10       -1.6060   28.0410   51.7470 C.ar    0  <0>0       -0.0003
      7  C11       -0.9950   28.0990   52.9980 C.ar    0  <0>0       -0.0023
      8  C12       -0.8580   29.1940   53.9820 C.2     0  <0>0       -0.0164
      9  C13       -0.1480   28.7130   55.0950 C.2     0  <0>0        0.0130
     10  C14        0.1130   29.5610   56.1700 C.2     0  <0>0        0.0007
     11  C15       -0.3250   30.8680   56.1360 C.2     0  <0>0       -0.0042
     12  C16       -1.0250   31.3450   55.0400 C.2     0  <0>0       -0.0214
     13  C17       -1.2930   30.5190   53.9670 C.3     0  <0>0        0.0523
     14  N3         0.8400   26.4940   55.6420 N.pl3   0  <0>0       -0.1490
     15  N2         0.2010   25.3770   56.1960 N.am    0  <0>0       -0.2271
     16  H7        -0.0130   24.6140   55.6370 H       0  <0>0        0.1737
     17  C4        -0.1180   25.3630   57.5050 C.2     0  <0>0        0.1490
     18  S1        -0.5450   23.8910   58.2670 S.2     0  <0>0       -0.0174
     19  N1        -0.1010   26.5080   58.2150 N.am    0  <0>0       -0.3113
     20  H6         0.6830   27.0800   58.1940 H       0  <0>0        0.1488
     21  C3        -1.2650   26.8900   59.0190 C.3     0  <0>0        0.1153
     22  C2        -2.0030   28.0110   58.3340 C.2     0  <0>0       -0.0050
     23  C1        -2.9250   27.7410   57.4430 C.2     0  <0>0       -0.0032
@<TRIPOS>BOND
     1     5     4   ar
     2     5     6   ar
     3     4     3   ar
     4     6     7   ar
     5     3     2   ar
     6     7     2   ar
     7     7     8    2
     8     2     1    2
     9    13     8    1
    10    13    12    1
    11     8     9    1
    12     1     9    1
    13     1    14    1
    14    12    11    2
    15     9    10    2
    16    16    15    1
    17    14    15    1
    18    11    10    1
    19    15    17    1
    20    23    22    2
    21    17    19    1
    22    17    18    2
    23    20    19    1
    24    19    21    1
    25    22    21    1
