@<TRIPOS>MOLECULE
ZINC17045246_replica-1.pdb
 24 27 0 0 0
SMALL
GASTEIGER

@<TRIPOS>ATOM
      1  C3         9.8750   35.9260   61.1990 C.3     0  <0>0        0.1729
      2  C4         8.7350   36.8890   61.5270 C.3     0  <0>0        0.0446
      3  C5         7.4130   36.3480   60.9720 C.3     0  <0>0        0.0115
      4  C6         7.5120   36.2580   59.4470 C.3     0  <0>0        0.0336
      5  C7         8.7080   35.4290   59.0820 C.2     0  <0>0       -0.0375
      6  C8         8.6450   34.3830   58.2740 C.2     0  <0>0       -0.0084
      7  C9         7.3840   33.9270   57.6950 C.2     0  <0>0       -0.0052
      8  C10        6.2340   34.5530   57.9940 C.2     0  <0>0       -0.0261
      9  C11        6.2330   35.7420   58.8620 C.2     0  <0>0       -0.0275
     10  C12        5.0950   36.3950   59.1250 C.2     0  <0>0       -0.0300
     11  C13        3.7680   35.9900   58.5220 C.3     0  <0>0        0.0329
     12  C14        4.0610   35.3240   57.1940 C.3     0  <0>0        0.0593
     13  C15        4.9160   34.0610   57.4940 C.3     0  <0>0        0.0293
     14  C16        4.9140   33.3770   56.1230 C.3     0  <0>0        0.0125
     15  C17        3.4450   33.5730   55.6560 C.3     0  <0>0        0.0648
     16  C18        2.9070   34.7660   56.4200 C.2     0  <0>0        0.1505
     17  O3         1.7740   35.1840   56.3990 O.2     0  <0>0       -0.2961
     18  C19        4.8580   36.2820   56.3070 C.3     0  <0>0        0.0080
     19  C20       10.0460   35.8240   59.6780 C.3     0  <0>0        0.0659
     20  C21        7.7390   37.6760   58.9190 C.3     0  <0>0        0.0084
     21  O2        11.1060   36.4160   61.7920 O.3     0  <0>0       -0.4519
     22  C2        11.8260   35.5420   62.5110 C.2     0  <0>0        0.3174
     23  C1        12.2270   34.2190   61.9100 C.3     0  <0>0        0.1212
     24  O1        12.1530   35.8150   63.6420 O.2     0  <0>0       -0.2501
@<TRIPOS>BOND
     1    15    14    1
     2    15    16    1
     3    14    13    1
     4    18    12    1
     5    17    16    2
     6    16    12    1
     7    12    13    1
     8    12    11    1
     9    13     8    1
    10     7     8    2
    11     7     6    1
    12     8     9    1
    13     6     5    2
    14    11    10    1
    15     9    10    2
    16     9     4    1
    17    20     4    1
    18     5     4    1
    19     5    19    1
    20     4     3    1
    21    19     1    1
    22     3     2    1
    23     1     2    1
    24     1    21    1
    25    21    22    1
    26    23    22    1
    27    22    24    2
