@<TRIPOS>MOLECULE
ZINC08021183_replica-1.pdb
 25 26 0 0 0
SMALL
GASTEIGER

@<TRIPOS>ATOM
      1  C4         5.4250   33.2110   56.9830 C.2     0  <0>0        0.1403
      2  C5         4.0790   32.8680   56.8010 C.2     0  <0>0        0.1214
      3  N1         3.1430   33.6610   57.2860 N.2     0  <0>0       -0.1767
      4  C6         3.4570   34.7740   57.9410 C.1     0  <0>0        0.1174
      5  N2         4.7160   35.1390   58.1430 N.2     0  <0>0       -0.3290
      6  C7         5.7190   34.4030   57.6830 C.2     0  <0>0        0.2036
      7  N3         7.0280   34.7890   57.8910 N.pl3   0  <0>0       -0.2874
      8  H7         7.6660   34.1620   58.2640 H       0  <0>0        0.1546
      9  C8         7.4330   36.0870   57.5640 C.ar    0  <0>0        0.0460
     10  C13        8.3300   36.7610   58.3820 C.ar    0  <0>0       -0.0093
     11  C12        8.7330   38.0420   58.0540 C.ar    0  <0>0       -0.0031
     12  C11        8.2400   38.6520   56.9150 C.ar    0  <0>0       -0.0002
     13  C10        7.3430   37.9840   56.1020 C.ar    0  <0>0        0.0013
     14  C9         6.9360   36.7050   56.4240 C.ar    0  <0>0        0.0143
     15  C14        8.8670   36.0970   59.6230 C.3     0  <0>0        0.0201
     16  C15        9.6270   37.1250   60.4630 C.3     0  <0>0        0.0044
     17  C16        9.8140   34.9630   59.2240 C.3     0  <0>0        0.0044
     18  C17        7.7060   35.5280   60.4400 C.3     0  <0>0        0.0044
     19  C3         6.5000   32.3580   56.4580 C.2     0  <0>0        0.3466
     20  O2         7.2300   32.7720   55.5780 O.2     0  <0>0       -0.2447
     21  O1         6.6770   31.1160   56.9530 O.3     0  <0>0       -0.4453
     22  C2         6.9970   31.0090   58.3660 C.3     0  <0>0        0.2089
     23  C1         8.4230   31.5080   58.6050 C.3     0  <0>0        0.0513
     24  S1         2.1620   35.7920   58.5660 S.3     0  <0>0       -0.0294
     25  C18        0.7370   35.0090   57.7710 C.3     0  <0>0        0.0861
@<TRIPOS>BOND
     1    20    19    2
     2    13    14   ar
     3    13    12   ar
     4    14     9   ar
     5    19    21    1
     6    19     1    1
     7     2     1    2
     8     2     3    1
     9    12    11   ar
    10    21    22    1
    11     1     6    1
    12     3     4    2
    13     9     7    1
    14     9    10   ar
    15     6     7    1
    16     6     5    2
    17    25    24    1
    18     7     8    1
    19     4     5    2
    20     4    24    1
    21    11    10   ar
    22    22    23    1
    23    10    15    1
    24    17    15    1
    25    15    18    1
    26    15    16    1
