@<TRIPOS>MOLECULE
ZINC29415634_replica-1.pdb
 26 28 0 0 0
SMALL
GASTEIGER

@<TRIPOS>ATOM
      1  C6         5.4530   34.8710   58.5510 C.ar    0  <0>0        0.1511
      2  N2         6.4610   34.8330   59.3840 N.ar    0  <0>0       -0.1551
      3  N3         7.7540   34.7600   58.9180 N.ar    0  <0>0       -0.2050
      4  C7         7.9500   34.7420   57.5510 C.ar    0  <0>0        0.1890
      5  N4         9.0680   34.6820   56.8710 N.2     0  <0>0       -0.2758
      6  S1         6.2660   34.8220   56.9620 S.2     0  <0>0       -0.0270
      7  H4         9.0460   34.6770   55.9010 H       0  <0>0        0.1889
      8  C8         8.8380   34.7130   59.8020 C.ar    0  <0>0        0.1059
      9  C13        9.2660   33.4930   60.3140 C.ar    0  <0>0        0.0761
     10  C12       10.3380   33.4500   61.1870 C.ar    0  <0>0        0.0168
     11 Cl          8.4570   32.0270   59.8590 Cl      0  <0>0       -0.0807
     12  C11       10.9840   34.6180   61.5480 C.ar    0  <0>0        0.0732
     13  C10       10.5610   35.8330   61.0410 C.ar    0  <0>0        0.0168
     14  C9         9.4940   35.8840   60.1640 C.ar    0  <0>0        0.0761
     15 Cl          8.9690   37.4080   59.5210 Cl      0  <0>0       -0.0807
     16  C14       12.1520   34.5670   62.4990 C.3     0  <0>0        0.4186
     17  F1        12.2450   35.7810   63.1890 F       0  <0>0       -0.1659
     18  F2        11.9650   33.5240   63.4120 F       0  <0>0       -0.1659
     19  F3        13.3320   34.3500   61.7780 F       0  <0>0       -0.1659
     20  C3         4.0060   34.9450   58.8490 C.ar    0  <0>0        0.1077
     21  N1         3.2510   35.8440   58.2280 N.ar    0  <0>0       -0.2417
     22  C2         1.9600   35.9460   58.4690 C.ar    0  <0>0        0.0998
     23  C1         1.3380   35.1100   59.3790 C.ar    0  <0>0        0.0321
     24  C5         2.0890   34.1520   60.0470 C.ar    0  <0>0        0.0608
     25  C4         3.4450   34.0660   59.7750 C.ar    0  <0>0        0.0327
     26 Cl          1.3450   33.0840   61.1960 Cl      0  <0>0       -0.0821
@<TRIPOS>BOND
     1     7     5    1
     2     5     4    2
     3     6     4   ar
     4     6     1   ar
     5     4     3   ar
     6    21    22   ar
     7    21    20   ar
     8    22    23   ar
     9     1    20    1
    10     1     2   ar
    11    20    25   ar
    12     3     2   ar
    13     3     8    1
    14    23    24   ar
    15    15    14    1
    16    25    24   ar
    17     8    14   ar
    18     8     9   ar
    19    11     9    1
    20    24    26    1
    21    14    13   ar
    22     9    10   ar
    23    13    12   ar
    24    10    12   ar
    25    12    16    1
    26    19    16    1
    27    16    17    1
    28    16    18    1
