@<TRIPOS>MOLECULE
ZINC08425913_replica-1.pdb
 31 36 0 0 0
SMALL
GASTEIGER

@<TRIPOS>ATOM
      1  N1         0.8220   33.7660   59.0250 N.ar    0  <0>0       -0.3217
      2  C8         0.9290   32.7330   58.1520 C.ar    0  <0>0        0.0762
      3  C9         0.6820   31.5550   58.8010 C.ar    0  <0>0        0.0193
      4  C10        0.3960   31.9040   60.2060 C.ar    0  <0>0        0.0173
      5  C11        0.5030   33.3020   60.2850 C.ar    0  <0>0        0.0602
      6  C12        0.2790   33.9340   61.5030 C.ar    0  <0>0        0.0172
      7  C13       -0.0370   33.1890   62.6180 C.ar    0  <0>0        0.0015
      8  C14       -0.1380   31.8080   62.5380 C.ar    0  <0>0        0.0001
      9  C15        0.0770   31.1630   61.3390 C.ar    0  <0>0        0.0015
     10  C16        0.6980   30.2140   58.2170 C.2     0  <0>0        0.0129
     11  C17        0.1730   30.0040   56.9780 C.ar    0  <0>0        0.0898
     12  S1        -0.7880   31.1070   55.9530 S.2     0  <0>0       -0.0321
     13  C25       -1.0170   30.0060   54.5730 C.ar    0  <0>0        0.2328
     14  N2        -0.3570   28.8600   54.9570 N.ar    0  <0>0       -0.2415
     15  N3        -1.5480   29.8770   53.3930 N.2     0  <0>0       -0.3803
     16  C18        0.2470   28.8490   56.1540 C.ar    0  <0>0        0.2731
     17  C19       -0.5220   27.9690   53.8810 C.2     0  <0>0        0.0953
     18  O1         0.8480   27.8590   56.5310 O.2     0  <0>0       -0.2660
     19  C24       -1.2770   28.6370   52.9090 C.2     0  <0>0        0.1319
     20  C20       -0.0950   26.6700   53.6640 C.2     0  <0>0        0.0197
     21  C23       -1.5970   27.9810   51.7170 C.3     0  <0>0        0.0865
     22  C22       -1.1670   26.6880   51.5140 C.2     0  <0>0       -0.0186
     23  C21       -0.4180   26.0340   52.4810 C.2     0  <0>0       -0.0026
     24  C7         1.0210   35.1770   58.6800 C.3     0  <0>0        0.1350
     25  C5         2.3830   35.3540   58.0580 C.ar    0  <0>0        0.0279
     26  C4         3.5220   35.1080   58.8050 C.ar    0  <0>0        0.1380
     27  C3         4.7720   35.2720   58.2330 C.ar    0  <0>0        0.0294
     28  F1         3.4140   34.7090   60.0910 F       0  <0>0       -0.2044
     29  C2         4.8810   35.6800   56.9170 C.ar    0  <0>0        0.0023
     30  C1         3.7430   35.9250   56.1710 C.ar    0  <0>0       -0.0001
     31  C6         2.4940   35.7620   56.7430 C.ar    0  <0>0       -0.0002
@<TRIPOS>BOND
     1    22    21    1
     2    22    23    2
     3    21    19    1
     4    23    20    1
     5    19    15    2
     6    19    17    1
     7    15    13    2
     8    20    17    2
     9    17    14    1
    10    13    14   ar
    11    13    12   ar
    12    14    16   ar
    13    12    11   ar
    14    16    18    2
    15    16    11   ar
    16    30    31   ar
    17    30    29   ar
    18    31    25   ar
    19    29    27   ar
    20    11    10    2
    21    25    24    1
    22    25    26   ar
    23     2     3   ar
    24     2     1   ar
    25    10     3    1
    26    27    26   ar
    27    24     1    1
    28     3     4   ar
    29    26    28    1
    30     1     5   ar
    31     4     5   ar
    32     4     9   ar
    33     5     6   ar
    34     9     8   ar
    35     6     7   ar
    36     8     7   ar
