@<TRIPOS>MOLECULE
ZINC58356726_replica-1.pdb
 32 34 0 0 0
SMALL
GASTEIGER

@<TRIPOS>ATOM
      1  C3         3.4480   32.3430   57.1400 C.3     0  <0>0        0.0216
      2  C2         3.9390   33.4250   56.1770 C.3     0  <0>0        0.0950
      3  N1         4.6720   34.4490   56.9260 N.am    0  <0>0       -0.2625
      4  C1         3.9890   35.2280   57.9620 C.3     0  <0>0        0.1164
      5  C16        5.9750   34.6730   56.6620 C.2     0  <0>0        0.3043
      6  O1         6.5410   34.0260   55.8030 O.2     0  <0>0       -0.2526
      7  N4         6.6490   35.6150   57.3520 N.am    0  <0>0       -0.2846
      8  H20        6.1970   36.1310   58.0370 H       0  <0>0        0.1513
      9  C17        8.0650   35.8590   57.0650 C.3     0  <0>0        0.1199
     10  C18        8.8310   35.9510   58.3590 C.ar    0  <0>0        0.0250
     11  C23        8.7890   37.1150   59.1070 C.ar    0  <0>0        0.1377
     12  C22        9.4890   37.1970   60.2990 C.ar    0  <0>0        0.0294
     13  F2         8.0620   38.1690   58.6770 F       0  <0>0       -0.2044
     14  C21       10.2370   36.1200   60.7360 C.ar    0  <0>0        0.0023
     15  C20       10.2830   34.9600   59.9850 C.ar    0  <0>0       -0.0001
     16  C19        9.5800   34.8760   58.7980 C.ar    0  <0>0       -0.0004
     17  C4         1.9380   32.4850   57.3390 C.3     0  <0>0        0.0022
     18  C5         1.2150   31.3960   56.5430 C.3     0  <0>0        0.0064
     19  C6        -0.0870   31.9610   55.9700 C.3     0  <0>0        0.0476
     20  C7        -0.6790   30.9740   54.9980 C.ar    0  <0>0        0.0798
     21  N3        -1.7810   31.1450   54.3120 N.ar    0  <0>0       -0.1771
     22  N2        -1.9930   30.0070   53.5220 N.ar    0  <0>0       -0.2761
     23  C9        -0.9750   29.1360   53.7680 C.ar    0  <0>0        0.0750
     24  H1        -2.7340   29.8640   52.9130 H       0  <0>0        0.1889
     25  C8        -0.1490   29.7220   54.6840 C.ar    0  <0>0        0.0349
     26  C10       -0.7970   27.8000   53.1550 C.ar    0  <0>0        0.0172
     27  C15       -0.0900   26.8070   53.8330 C.ar    0  <0>0        0.0038
     28  C14        0.0680   25.5630   53.2590 C.ar    0  <0>0        0.0297
     29  C13       -0.4640   25.3020   52.0070 C.ar    0  <0>0        0.1401
     30  C12       -1.1630   26.2860   51.3270 C.ar    0  <0>0        0.0297
     31  F1        -0.3020   24.0830   51.4470 F       0  <0>0       -0.2042
     32  C11       -1.3320   27.5320   51.8940 C.ar    0  <0>0        0.0038
@<TRIPOS>BOND
     1    30    32   ar
     2    30    29   ar
     3    31    29    1
     4    32    26   ar
     5    29    28   ar
     6    24    22    1
     7    26    23    1
     8    26    27   ar
     9    28    27   ar
    10    22    23   ar
    11    22    21   ar
    12    23    25   ar
    13    21    20   ar
    14    25    20   ar
    15    20    19    1
    16     6     5    2
    17    19    18    1
    18     2     3    1
    19     2     1    1
    20    18    17    1
    21     5     3   am
    22     5     7   am
    23     3     4    1
    24     9     7    1
    25     9    10    1
    26     1    17    1
    27     7     8    1
    28    10    16   ar
    29    10    11   ar
    30    13    11    1
    31    16    15   ar
    32    11    12   ar
    33    15    14   ar
    34    12    14   ar
