@<TRIPOS>MOLECULE
ZINC36995241_replica-1.pdb
 22 22 0 0 0
SMALL
GASTEIGER

@<TRIPOS>ATOM
      1  C8        -0.1560   28.0750   55.6040 C.ar    0  <0>0        0.0405
      2  C9         0.4290   26.8640   55.2580 C.ar    0  <0>0        0.0137
      3  C10        0.2760   26.3640   53.9790 C.ar    0  <0>0       -0.0030
      4  C11       -0.4600   27.0690   53.0440 C.ar    0  <0>0       -0.0227
      5  C12       -1.0430   28.2760   53.3840 C.ar    0  <0>0       -0.0073
      6  C13       -0.8990   28.7780   54.6630 C.ar    0  <0>0       -0.0097
      7  N1        -0.0030   28.5830   56.8960 N.pl3   0  <0>0       -0.3342
      8  H16        0.0710   29.5390   57.0350 H       0  <0>0        0.1468
      9  C2         0.0450   27.6700   58.0410 C.3     0  <0>0        0.0714
     10  C1         1.4100   27.7780   58.7230 C.3     0  <0>0        0.0212
     11  C3        -1.0540   28.0430   59.0370 C.3     0  <0>0        0.0467
     12  C4        -2.1390   26.9640   59.0290 C.3     0  <0>0        0.0946
     13  C5        -2.9240   27.0200   60.3410 C.3     0  <0>0        0.0297
     14  C6        -3.0890   27.2050   57.8550 C.3     0  <0>0        0.0297
     15  O1        -1.5300   25.6780   58.8940 O.3     0  <0>0       -0.3558
     16  C7        -1.3430   24.9900   60.1320 C.3     0  <0>0        0.1739
     17  C14       -1.5410   30.0890   55.0360 C.3     0  <0>0        0.0235
     18  C15       -0.5880   31.2380   54.6980 C.3     0  <0>0        0.0047
     19  C16       -2.8440   30.2600   54.2520 C.3     0  <0>0        0.0047
     20  C17       -0.6240   26.5220   51.6500 C.3     0  <0>0        0.0223
     21  C18       -0.8070   25.0050   51.7150 C.3     0  <0>0        0.0047
     22  C19       -1.8540   27.1560   50.9950 C.3     0  <0>0        0.0047
@<TRIPOS>BOND
     1    22    20    1
     2    20    21    1
     3    20     4    1
     4     4     5   ar
     5     4     3   ar
     6     5     6   ar
     7     3     2   ar
     8    19    17    1
     9     6    17    1
    10     6     1   ar
    11    18    17    1
    12     2     1   ar
    13     1     7    1
    14     7     8    1
    15     7     9    1
    16    14    12    1
    17     9    10    1
    18     9    11    1
    19    15    12    1
    20    15    16    1
    21    12    11    1
    22    12    13    1
