@<TRIPOS>MOLECULE
ZINC32473494_replica-1.pdb
 20 21 0 0 0
SMALL
GASTEIGER

@<TRIPOS>ATOM
      1  C6        10.6420   35.3870   60.8360 C.ar    0  <0>0        0.1219
      2  C7        10.2380   34.8550   59.6260 C.ar    0  <0>0        0.0196
      3  C8         9.3690   35.5620   58.8150 C.ar    0  <0>0       -0.0029
      4  C9         8.9060   36.8020   59.2150 C.ar    0  <0>0       -0.0227
      5  C10        9.3110   37.3340   60.4250 C.ar    0  <0>0       -0.0029
      6  C11       10.1760   36.6240   61.2380 C.ar    0  <0>0        0.0196
      7  S1        11.7490   34.4840   61.8680 S.O2    0  <0>0        0.0602
      8  O1        11.7430   35.1310   63.1330 O.2     0  <0>0       -0.1530
      9  O2        12.9390   34.2900   61.1170 O.2     0  <0>0       -0.1530
     10  N1        11.0870   32.9840   62.1010 N.3     0  <0>0       -0.1794
     11  H10       10.6320   32.5350   61.3710 H       0  <0>0        0.1488
     12  C5        11.1890   32.3340   63.4100 C.3     0  <0>0        0.0914
     13  C4        11.7750   30.9300   63.2380 C.3     0  <0>0        0.0175
     14  C2        13.2830   30.7660   63.4390 C.3     0  <0>0        0.0014
     15  C1        14.0900   32.0160   63.7960 C.3     0  <0>0        0.0000
     16  C3        12.3080   30.2290   64.4900 C.3     0  <0>0        0.0015
     17  C12        7.9610   37.5740   58.3320 C.3     0  <0>0        0.0189
     18  C13        7.3840   38.7560   59.1140 C.3     0  <0>0        0.0044
     19  C14        8.7150   38.0930   57.1060 C.3     0  <0>0        0.0044
     20  C15        6.8220   36.6580   57.8800 C.3     0  <0>0        0.0044
@<TRIPOS>BOND
     1    19    17    1
     2    20    17    1
     3    17    18    1
     4    17     4    1
     5     3     4   ar
     6     3     2   ar
     7     4     5   ar
     8     2     1   ar
     9     5     6   ar
    10     1     6   ar
    11     1     7    1
    12     9     7    2
    13    11    10    1
    14     7    10    1
    15     7     8    2
    16    10    12    1
    17    13    12    1
    18    13    14    1
    19    13    16    1
    20    14    15    1
    21    14    16    1
