@<TRIPOS>MOLECULE
ZINC59020438_replica-1.pdb
 27 29 0 0 0
SMALL
GASTEIGER

@<TRIPOS>ATOM
      1  N2         0.2860   32.9300   57.9300 N.pl3   0  <0>0       -0.1963
      2  C4        -0.0790   32.0840   56.8990 C.cat   0  <0>0        0.2845
      3  N3        -0.4380   30.8220   57.0230 N.2     0  <0>0       -0.3098
      4  C5        -0.7230   30.3160   55.8180 C.1     0  <0>0        0.1339
      5  N4        -0.5490   31.2480   54.9110 N.2     0  <0>0       -0.1060
      6  N5        -0.1370   32.4070   55.5900 N.pl3   0  <0>0       -0.1864
      7  H6         0.5320   33.8480   57.7400 H       0  <0>0        0.1783
      8  H21        0.0680   33.2680   55.1940 H       0  <0>0        0.1791
      9  N1         0.3020   32.4590   59.2500 N.2     0  <0>0       -0.1828
     10  C3         1.0790   33.0170   60.1280 C.2     0  <0>0        0.0762
     11  C2         0.9650   32.6380   61.5820 C.3     0  <0>0        0.0474
     12  C1        -0.0650   33.5410   62.2650 C.3     0  <0>0        0.0067
     13  C14        2.0710   34.0200   59.7030 C.ar    0  <0>0        0.0150
     14  C19        3.4370   33.7480   59.8160 C.ar    0  <0>0        0.0012
     15  C18        4.3610   34.6900   59.4100 C.ar    0  <0>0        0.0000
     16  C17        3.9360   35.9060   58.9040 C.ar    0  <0>0        0.0000
     17  C16        2.5840   36.1840   58.7940 C.ar    0  <0>0        0.0000
     18  C15        1.6510   35.2500   59.1900 C.ar    0  <0>0        0.0012
     19  S1        -1.2470   28.6640   55.5000 S.3     0  <0>0       -0.0243
     20  C6         0.1680   27.9100   54.6520 C.3     0  <0>0        0.0994
     21  C7        -0.3180   27.1450   53.4470 C.ar    0  <0>0       -0.0142
     22  C12       -0.0520   25.7940   53.3350 C.ar    0  <0>0       -0.0249
     23  C11       -0.5020   25.0900   52.2310 C.ar    0  <0>0       -0.0045
     24  C13        0.7240   25.0850   54.4140 C.3     0  <0>0        0.0307
     25  C10       -1.2100   25.7420   51.2390 C.ar    0  <0>0       -0.0003
     26  C9        -1.4720   27.0950   51.3500 C.ar    0  <0>0       -0.0003
     27  C8        -1.0250   27.7960   52.4540 C.ar    0  <0>0       -0.0037
@<TRIPOS>BOND
     1    25    26   ar
     2    25    23   ar
     3    26    27   ar
     4    23    22   ar
     5    27    21   ar
     6    22    21   ar
     7    22    24    1
     8    21    20    1
     9    20    19    1
    10     5     6    1
    11     5     4    2
    12     8     6    1
    13    19     4    1
    14     6     2    1
    15     4     3    2
    16     2     3    2
    17     2     1    1
    18     7     1    1
    19     1     9    1
    20    17    16   ar
    21    17    18   ar
    22    16    15   ar
    23    18    13   ar
    24     9    10    2
    25    15    14   ar
    26    13    14   ar
    27    13    10    1
    28    10    11    1
    29    11    12    1
