@<TRIPOS>MOLECULE
ZINC41414916_replica-1.pdb
 20 21 0 0 0
SMALL
GASTEIGER

@<TRIPOS>ATOM
      1  C5         8.1240   33.0120   58.8830 C.ar    0  <0>0        0.0109
      2  C6         8.7810   33.8660   59.7470 C.ar    0  <0>0       -0.0050
      3  C7         9.3490   35.0330   59.2710 C.ar    0  <0>0       -0.0121
      4  C8         9.2630   35.3480   57.9270 C.ar    0  <0>0       -0.0007
      5  C9         8.6080   34.4970   57.0580 C.ar    0  <0>0        0.0363
      6  C10        8.0410   33.3230   57.5330 C.ar    0  <0>0        0.1347
      7  C12       10.0640   35.9630   60.2170 C.3     0  <0>0        0.1212
      8  C13       10.4990   35.1880   61.4610 C.3     0  <0>0        0.0147
      9  C15       11.8640   34.4970   61.4220 C.3     0  <0>0        0.0009
     10  C14       11.6670   35.7530   62.2740 C.3     0  <0>0        0.0009
     11  C16        9.1360   37.0810   60.6210 C.2     0  <0>0        0.3207
     12  O2         8.5270   37.0130   61.6620 O.2     0  <0>0       -0.2498
     13  O3         8.9870   38.1500   59.8240 O.3     0  <0>0       -0.4442
     14  C17        7.6720   38.4110   59.3300 C.3     0  <0>0        0.2556
     15  C2         7.5050   31.7410   59.4030 C.3     0  <0>0        0.0218
     16  C1         7.8690   31.5640   60.8790 C.3     0  <0>0        0.0045
     17  C3         8.0330   30.5500   58.6000 C.3     0  <0>0        0.0045
     18  C4         5.9840   31.8190   59.2590 C.3     0  <0>0        0.0045
     19  O1         7.4010   32.4820   56.6790 O.3     0  <0>0       -0.4717
     20  C11        6.4710   33.0680   55.7660 C.3     0  <0>0        0.2525
@<TRIPOS>BOND
     1    20    19    1
     2    19     6    1
     3     5     6   ar
     4     5     4   ar
     5     6     1   ar
     6     4     3   ar
     7    17    15    1
     8     1    15    1
     9     1     2   ar
    10    18    15    1
    11     3     2   ar
    12     3     7    1
    13    14    13    1
    14    15    16    1
    15    13    11    1
    16     7    11    1
    17     7     8    1
    18    11    12    2
    19     9     8    1
    20     9    10    1
    21     8    10    1
