@<TRIPOS>MOLECULE
ZINC32655145_replica-1.pdb
 34 38 0 0 0
SMALL
GASTEIGER

@<TRIPOS>ATOM
      1  C8         2.0800   33.0560   58.9830 C.3     0  <0>0        0.0649
      2  C9         1.3430   32.4400   57.8320 C.3     0  <0>0        0.1516
      3  C10        0.4370   33.2040   57.0850 C.2     0  <0>0        0.2365
      4  O1         0.2380   34.3770   57.3570 O.2     0  <0>0       -0.2742
      5  N1        -0.2130   32.6180   56.0560 N.am    0  <0>0       -0.2540
      6  H2        -0.9270   33.1980   55.4540 H       0  <0>0        0.1577
      7  C11        0.0150   31.3080   55.7630 C.2     0  <0>0        0.2145
      8  N2         0.8660   30.5850   56.4630 N.2     0  <0>0       -0.3697
      9  C12        1.5400   31.1150   57.4890 C.2     0  <0>0        0.1714
     10  N3         2.4320   30.3490   58.2130 N.pl3   0  <0>0       -0.2946
     11  C13        3.3950   30.9410   58.9850 C.2     0  <0>0        0.0260
     12  C14        3.2790   32.2280   59.3710 C.2     0  <0>0        0.0265
     13  C15        4.2760   32.8420   60.1500 C.2     0  <0>0        0.1703
     14  O2         4.1360   34.0000   60.4920 O.2     0  <0>0       -0.2916
     15  C16        5.5110   32.0950   60.5700 C.3     0  <0>0        0.0693
     16  C17        5.8200   31.0160   59.5270 C.3     0  <0>0        0.0141
     17  C18        4.5920   30.1130   59.3870 C.3     0  <0>0        0.0414
     18  H10        2.3730   29.2520   58.1720 H       0  <0>0        0.1540
     19  S1        -0.8470   30.5620   54.4190 S.3     0  <0>0       -0.0620
     20  C19       -0.4940   28.8170   54.7490 C.3     0  <0>0        0.0930
     21  C20       -0.7730   28.0060   53.5090 C.ar    0  <0>0       -0.0003
     22  C25       -0.2950   26.7110   53.4080 C.ar    0  <0>0        0.0545
     23  C24       -0.5520   25.9670   52.2700 C.ar    0  <0>0        0.0111
     24 Cl          0.6270   26.0220   54.7080 Cl      0  <0>0       -0.0825
     25  C23       -1.2860   26.5160   51.2360 C.ar    0  <0>0        0.0008
     26  C22       -1.7650   27.8100   51.3390 C.ar    0  <0>0       -0.0002
     27  C21       -1.5120   28.5520   52.4770 C.ar    0  <0>0       -0.0026
     28  C6         1.1500   33.1620   60.1650 C.ar    0  <0>0       -0.0177
     29  C5         0.6000   34.3850   60.5020 C.ar    0  <0>0       -0.0040
     30  C4        -0.2530   34.4830   61.5860 C.ar    0  <0>0       -0.0006
     31  C3        -0.5580   33.3590   62.3300 C.ar    0  <0>0       -0.0043
     32  C2        -0.0020   32.1370   61.9950 C.ar    0  <0>0       -0.0222
     33  C1        -0.3310   30.9120   62.8090 C.3     0  <0>0        0.0310
     34  C7         0.8500   32.0390   60.9120 C.ar    0  <0>0       -0.0082
@<TRIPOS>BOND
     1    25    26   ar
     2    25    23   ar
     3    26    27   ar
     4    23    22   ar
     5    27    21   ar
     6    22    21   ar
     7    22    24    1
     8    21    20    1
     9    19    20    1
    10    19     7    1
    11     6     5    1
    12     7     5    1
    13     7     8    2
    14     5     3   am
    15     8     9    2
    16     3     4    2
    17     3     2    1
    18     9     2    1
    19     9    10    1
    20     2     1    1
    21    18    10    1
    22    10    11    1
    23     1    12    1
    24     1    28    1
    25    11    12    2
    26    11    17    1
    27    12    13    1
    28    17    16    1
    29    16    15    1
    30    13    14    2
    31    13    15    1
    32    28    29   ar
    33    28    34   ar
    34    29    30   ar
    35    34    32   ar
    36    30    31   ar
    37    32    31   ar
    38    32    33    1
