@<TRIPOS>MOLECULE
ZINC08561187_replica-1.pdb
 32 34 0 0 0
SMALL
GASTEIGER

@<TRIPOS>ATOM
      1  C12        2.9830   33.5140   56.5300 C.2     0  <0>0        0.2614
      2  O2         3.4020   33.7150   55.4080 O.2     0  <0>0       -0.2686
      3  N1         1.9010   32.7310   56.7150 N.am    0  <0>0       -0.2301
      4  H16        1.5660   32.5700   57.6120 H       0  <0>0        0.1731
      5  N2         1.2610   32.1500   55.6140 N.am    0  <0>0       -0.2301
      6  C13        0.0310   31.6180   55.7520 C.2     0  <0>0        0.2615
      7  O3        -0.5240   31.6420   56.8360 O.2     0  <0>0       -0.2686
      8  H17        1.7030   32.1300   54.7510 H       0  <0>0        0.1731
      9  C14       -0.6380   31.0100   54.6020 C.2     0  <0>0        0.0592
     10  C15       -0.5500   29.6790   54.3940 C.2     0  <0>0        0.0047
     11  C16       -1.2210   29.0700   53.2410 C.ar    0  <0>0        0.0001
     12  C21       -0.9370   27.6880   52.8540 C.ar    0  <0>0        0.0000
     13  C20       -1.6080   27.1410   51.7330 C.ar    0  <0>0        0.0000
     14  C22       -0.0200   26.9040   53.5620 C.ar    0  <0>0        0.0000
     15  C19       -2.5260   27.9310   51.0230 C.ar    0  <0>0        0.0000
     16  C25       -1.3390   25.8140   51.3540 C.ar    0  <0>0        0.0000
     17  C18       -2.7770   29.2150   51.4010 C.ar    0  <0>0        0.0000
     18  C17       -2.1440   29.7940   52.4910 C.ar    0  <0>0        0.0000
     19  C24       -0.4370   25.0810   52.0630 C.ar    0  <0>0        0.0000
     20  C23        0.2160   25.6210   53.1670 C.ar    0  <0>0        0.0000
     21  C9         3.6580   34.1270   57.6920 C.ar    0  <0>0        0.0550
     22  C8         4.3040   35.3580   57.5570 C.ar    0  <0>0        0.0077
     23  C7         4.9330   35.9260   58.6420 C.ar    0  <0>0        0.0370
     24  C6         4.9250   35.2770   59.8710 C.ar    0  <0>0        0.1386
     25  C11        4.2810   34.0520   60.0100 C.ar    0  <0>0        0.0370
     26  C10        3.6460   33.4800   58.9300 C.ar    0  <0>0        0.0077
     27  O1         5.5450   35.8400   60.9380 O.3     0  <0>0       -0.4755
     28  C5         6.4410   36.9210   60.6720 C.3     0  <0>0        0.2054
     29  C4         7.8840   36.4320   60.8030 C.3     0  <0>0        0.0473
     30  C2         8.5840   36.5360   59.4460 C.3     0  <0>0        0.0037
     31  C1         8.9940   37.9880   59.1950 C.3     0  <0>0        0.0001
     32  C3         9.8290   35.6470   59.4450 C.3     0  <0>0        0.0001
@<TRIPOS>BOND
     1    15    17   ar
     2    15    13   ar
     3    16    13   ar
     4    16    19   ar
     5    17    18   ar
     6    13    12   ar
     7    19    20   ar
     8    18    11   ar
     9    12    11   ar
    10    12    14   ar
    11    20    14   ar
    12    11    10    1
    13    10     9    2
    14     9     6    1
    15     8     5    1
    16     2     1    2
    17     5     6   am
    18     5     3    1
    19     6     7    2
    20     1     3   am
    21     1    21    1
    22     3     4    1
    23    22    21   ar
    24    22    23   ar
    25    21    26   ar
    26    23    24   ar
    27    26    25   ar
    28    31    30    1
    29    32    30    1
    30    30    29    1
    31    24    25   ar
    32    24    27    1
    33    28    29    1
    34    28    27    1
