@<TRIPOS>MOLECULE
ZINC24964291_replica-1.pdb
 24 26 0 0 0
SMALL
GASTEIGER

@<TRIPOS>ATOM
      1  C10        1.2290   32.2870   56.6060 C.1     0  <0>0        0.1692
      2  N1         0.5050   33.3870   56.4360 N.2     0  <0>0       -0.3238
      3  C11        1.0340   34.5960   56.5220 C.2     0  <0>0        0.1778
      4  C12        2.4210   34.7320   56.8060 C.3     0  <0>0        0.1492
      5  C13        3.2250   35.9330   56.9490 C.2     0  <0>0       -0.0034
      6  C14        4.5330   35.8180   57.2200 C.2     0  <0>0        0.0339
      7  S2         4.7860   34.0560   57.3050 S.3     0  <0>0       -0.0579
      8  C15        3.1280   33.5220   56.9740 C.2     0  <0>0        0.1630
      9  N2         2.5260   32.3530   56.8770 N.2     0  <0>0       -0.3319
     10  S1         0.4520   30.7120   56.4760 S.3     0  <0>0       -0.0180
     11  C9        -1.2580   31.2270   56.1820 C.3     0  <0>0        0.0783
     12  C8        -2.1120   30.0020   55.8540 C.3     0  <0>0        0.0601
     13  C7        -2.4260   29.9840   54.3560 C.3     0  <0>0        0.2063
     14  O1        -1.2220   29.7530   53.6200 O.3     0  <0>0       -0.4754
     15  C6        -1.0430   28.5070   53.1070 C.ar    0  <0>0        0.1386
     16  C1        -0.3080   27.5650   53.8120 C.ar    0  <0>0        0.0378
     17  C2        -0.1290   26.2990   53.2890 C.ar    0  <0>0        0.0145
     18  C3        -0.6800   25.9710   52.0630 C.ar    0  <0>0        0.0579
     19  C4        -1.4120   26.9100   51.3590 C.ar    0  <0>0        0.0145
     20 Cl         -0.4520   24.3800   51.4090 Cl      0  <0>0       -0.0822
     21  C5        -1.5950   28.1760   51.8780 C.ar    0  <0>0        0.0378
     22  N3         0.2450   35.7180   56.3390 N.pl3   0  <0>0       -0.3350
     23  H13        0.6440   36.5880   55.7970 H       0  <0>0        0.1444
     24  H14       -0.7810   35.7390   56.7350 H       0  <0>0        0.1444
@<TRIPOS>BOND
     1    19    21   ar
     2    19    18   ar
     3    20    18    1
     4    21    15   ar
     5    18    17   ar
     6    15    14    1
     7    15    16   ar
     8    17    16   ar
     9    14    13    1
    10    13    12    1
    11    23    22    1
    12    12    11    1
    13    11    10    1
    14    22     3    1
    15    22    24    1
    16     2     3    2
    17     2     1    2
    18    10     1    1
    19     3     4    1
    20     1     9    2
    21     4     5    1
    22     4     8    1
    23     9     8    2
    24     5     6    2
    25     8     7    1
    26     6     7    1
