@<TRIPOS>MOLECULE
ZINC04027090_replica-1.pdb
 22 24 0 0 0
SMALL
GASTEIGER

@<TRIPOS>ATOM
      1  C7         8.2750   35.2000   59.2930 C.3     0  <0>0        0.1187
      2  C8         7.5880   36.4060   58.6440 C.3     0  <0>0        0.0452
      3  C9         8.0610   37.6950   59.2920 C.3     0  <0>0        0.0068
      4  C10        7.7690   38.8890   58.3810 C.3     0  <0>0        0.0051
      5  C11        8.5790   38.7260   57.0920 C.3     0  <0>0        0.0254
      6  C12        8.2660   37.3930   56.4760 C.2     0  <0>0       -0.0345
      7  C13        7.8400   36.3760   57.1630 C.2     0  <0>0       -0.0444
      8  C14        7.5880   35.0580   56.4440 C.3     0  <0>0        0.0452
      9  C15        6.0810   34.7920   56.4520 C.3     0  <0>0        0.0064
     10  C16        5.7940   33.4240   55.8310 C.3     0  <0>0        0.0005
     11  C17        6.4950   32.3380   56.6510 C.3     0  <0>0        0.0025
     12  C18        8.0040   32.5910   56.6360 C.3     0  <0>0        0.0299
     13  C19        8.3060   33.9610   57.2360 C.3     0  <0>0        0.1187
     14  O3         7.8920   34.0080   58.6010 O.3     0  <0>0       -0.3581
     15  C6         9.7920   35.3730   59.2120 C.3     0  <0>0        0.0300
     16  C5        10.4430   34.7640   60.4550 C.3     0  <0>0        0.0063
     17  C4        10.8150   35.8770   61.4350 C.3     0  <0>0        0.0475
     18  C3        11.8530   35.3560   62.4300 C.3     0  <0>0        0.2084
     19  O2        11.7860   33.9060   62.4860 O.3     0  <0>0       -0.4485
     20  C2        12.9070   33.2570   62.8370 C.2     0  <0>0        0.3176
     21  C1        14.2530   33.8160   62.4530 C.3     0  <0>0        0.1212
     22  O1        12.8380   32.2260   63.4620 O.2     0  <0>0       -0.2501
@<TRIPOS>BOND
     1    10     9    1
     2    10    11    1
     3     8     9    1
     4     8     7    1
     5     8    13    1
     6     6     5    1
     7     6     7    2
     8    12    11    1
     9    12    13    1
    10     5     4    1
    11     7     2    1
    12    13    14    1
    13     4     3    1
    14    14     1    1
    15     2     3    1
    16     2     1    1
    17    15     1    1
    18    15    16    1
    19    16    17    1
    20    17    18    1
    21    18    19    1
    22    21    20    1
    23    19    20    1
    24    20    22    2
