@<TRIPOS>MOLECULE
ZINC66875791_replica-1.pdb
 24 24 0 0 0
SMALL
GASTEIGER

@<TRIPOS>ATOM
      1  C8         9.2810   34.5190   59.5530 C.2     0  <0>0        0.3353
      2  O3         8.9900   33.4000   59.2010 O.2     0  <0>0       -0.2483
      3  C4         8.2850   35.6400   59.3970 C.3     0  <0>0        0.1739
      4  N1         7.1180   35.1570   58.6550 N.am    0  <0>0       -0.2624
      5  C3         5.9370   34.9980   59.2860 C.2     0  <0>0        0.4020
      6  O2         5.8410   35.2560   60.4690 O.2     0  <0>0       -0.2264
      7  H8         7.1950   34.9510   57.7100 H       0  <0>0        0.1532
      8  O1         4.8640   34.5540   58.6030 O.3     0  <0>0       -0.4347
      9  C2         4.1810   35.5040   57.7820 C.3     0  <0>0        0.2102
     10  C1         2.9410   36.0150   58.5180 C.3     0  <0>0        0.0513
     11  C5         8.9340   36.7960   58.6320 C.3     0  <0>0        0.0290
     12  C6         8.3270   36.8820   57.2300 C.3     0  <0>0        0.0023
     13  C7         8.6830   38.1070   59.3790 C.3     0  <0>0        0.0023
     14  O4        10.4890   34.7640   60.0820 O.3     0  <0>0       -0.4465
     15  C9        10.5510   34.9550   61.4970 C.3     0  <0>0        0.1934
     16  C10       10.8940   36.4150   61.8010 C.3     0  <0>0        0.0525
     17  C11       11.6130   34.0580   62.0790 C.ar    0  <0>0        0.0449
     18  C16       11.3150   32.7420   62.3870 C.ar    0  <0>0        0.1417
     19  C15       12.2920   31.9160   62.9160 C.ar    0  <0>0        0.0590
     20  F1        10.0730   32.2610   62.1650 F       0  <0>0       -0.2043
     21  C14       13.5630   32.4120   63.1480 C.ar    0  <0>0        0.1424
     22  C13       13.8580   33.7310   62.8450 C.ar    0  <0>0        0.0296
     23  F2        14.5170   31.6090   63.6700 F       0  <0>0       -0.2041
     24  C12       12.8830   34.5520   62.3110 C.ar    0  <0>0        0.0037
@<TRIPOS>BOND
     1    12    11    1
     2     7     4    1
     3     9    10    1
     4     9     8    1
     5     8     5    1
     6    11    13    1
     7    11     3    1
     8     4     5   am
     9     4     3    1
    10     2     1    2
    11     5     6    2
    12     3     1    1
    13     1    14    1
    14    14    15    1
    15    15    16    1
    16    15    17    1
    17    17    24   ar
    18    17    18   ar
    19    20    18    1
    20    24    22   ar
    21    18    19   ar
    22    22    21   ar
    23    19    21   ar
    24    21    23    1
