@<TRIPOS>MOLECULE
ZINC13172567_replica-1.pdb
 28 29 0 0 0
SMALL
GASTEIGER

@<TRIPOS>ATOM
      1  N1         8.2700   34.9230   59.8750 N.am    0  <0>0       -0.2981
      2  C10        9.4390   35.4080   60.3380 C.2     0  <0>0        0.2462
      3  O2         9.6470   36.6080   60.3250 O.2     0  <0>0       -0.2701
      4  H8         8.1310   33.9650   59.8170 H       0  <0>0        0.1500
      5  C7         7.2070   35.8430   59.4600 C.3     0  <0>0        0.1064
      6  C5         7.4110   36.2270   58.0160 C.ar    0  <0>0        0.0066
      7  C4         7.5030   37.5600   57.6620 C.ar    0  <0>0        0.0552
      8  C3         7.6910   37.9130   56.3370 C.ar    0  <0>0        0.0111
      9 Cl          7.3850   38.7930   58.8790 Cl      0  <0>0       -0.0825
     10  C2         7.7870   36.9310   55.3690 C.ar    0  <0>0        0.0008
     11  C1         7.6950   35.5980   55.7230 C.ar    0  <0>0       -0.0002
     12  C6         7.5110   35.2460   57.0470 C.ar    0  <0>0       -0.0018
     13  C8         5.8490   35.1590   59.6190 C.3     0  <0>0        0.1381
     14  C9         6.0530   33.7380   60.0770 C.2     0  <0>0        0.3669
     15  O1         5.8640   33.4430   61.2330 O.co2   0  <0>0       -0.2456
     16  O3         6.4440   32.7990   59.2000 O.co2   0  <0>0       -0.2456
     17  C11       10.4570   34.4930   60.8560 C.2     0  <0>0        0.0577
     18  C12       11.3130   34.9090   61.8110 C.2     0  <0>0        0.0046
     19  C13       12.3370   33.9890   62.3330 C.ar    0  <0>0        0.0001
     20  C18       11.9670   32.7490   62.8590 C.ar    0  <0>0        0.0039
     21  C17       12.9330   31.8940   63.3460 C.ar    0  <0>0        0.0714
     22  C16       14.2680   32.2610   63.3140 C.ar    0  <0>0        0.0039
     23  C15       14.6410   33.4900   62.7980 C.ar    0  <0>0       -0.0001
     24  C14       13.6880   34.3540   62.3030 C.ar    0  <0>0       -0.0000
     25  C19       12.5350   30.5570   63.9150 C.3     0  <0>0        0.4186
     26  F1        13.0350   29.5350   63.1010 F       0  <0>0       -0.1659
     27  F2        13.0610   30.4230   65.2050 F       0  <0>0       -0.1659
     28  F3        11.1400   30.4690   63.9690 F       0  <0>0       -0.1659
@<TRIPOS>BOND
     1    10    11   ar
     2    10     8   ar
     3    11    12   ar
     4     8     7   ar
     5    12     6   ar
     6     7     6   ar
     7     7     9    1
     8     6     5    1
     9    16    14   ar
    10     5    13    1
    11     5     1    1
    12    13    14    1
    13     4     1    1
    14     1     2   am
    15    14    15   ar
    16     3     2    2
    17     2    17    1
    18    17    18    2
    19    18    19    1
    20    24    19   ar
    21    24    23   ar
    22    19    20   ar
    23    23    22   ar
    24    20    21   ar
    25    26    25    1
    26    22    21   ar
    27    21    25    1
    28    25    28    1
    29    25    27    1
