@<TRIPOS>MOLECULE
ZINC40263891_replica-1.pdb
 22 23 0 0 0
SMALL
GASTEIGER

@<TRIPOS>ATOM
      1  C10        8.1410   37.7900   58.8740 C.3     0  <0>0        0.1579
      2  C7         9.0880   36.8730   59.6030 C.ar    0  <0>0        0.0085
      3  C6         9.5610   37.2200   60.8550 C.ar    0  <0>0       -0.0019
      4  C5        10.4290   36.3780   61.5240 C.ar    0  <0>0       -0.0045
      5  C4        10.8240   35.1880   60.9430 C.ar    0  <0>0       -0.0225
      6  C9        10.3550   34.8430   59.6890 C.ar    0  <0>0       -0.0045
      7  C8         9.4830   35.6820   59.0210 C.ar    0  <0>0       -0.0019
      8  C2        11.7700   34.2700   61.6720 C.3     0  <0>0        0.0224
      9  C1        12.3370   34.9910   62.8970 C.3     0  <0>0        0.0047
     10  C3        11.0190   33.0160   62.1210 C.3     0  <0>0        0.0047
     11  C11        6.8790   37.0400   58.5320 C.ar    0  <0>0        0.0426
     12  C16        6.5200   36.8520   57.2040 C.ar    0  <0>0        0.1428
     13  C15        5.3610   36.1560   56.8940 C.ar    0  <0>0        0.0369
     14  C14        4.5610   35.6630   57.9050 C.ar    0  <0>0        0.0031
     15  C13        4.9180   35.8560   59.2270 C.ar    0  <0>0       -0.0000
     16  C12        6.0740   36.5450   59.5400 C.ar    0  <0>0        0.0014
     17  O1         7.3070   37.3440   56.2120 O.3     0  <0>0       -0.4239
     18  C17        7.9930   36.3910   55.3960 C.3     0  <0>0        0.5086
     19  F1         8.2780   35.2500   56.1520 F       0  <0>0       -0.1550
     20  F2         7.1850   36.0400   54.3090 F       0  <0>0       -0.1550
     21  O2         7.8220   38.9060   59.7060 O.3     0  <0>0       -0.3755
     22  H18        7.1000   38.7390   60.3280 H       0  <0>0        0.2112
@<TRIPOS>BOND
     1    20    18    1
     2    18    19    1
     3    18    17    1
     4    17    12    1
     5    13    12   ar
     6    13    14   ar
     7    12    11   ar
     8    14    15   ar
     9    11     1    1
    10    11    16   ar
    11     1     2    1
    12     1    21    1
    13     7     2   ar
    14     7     6   ar
    15    15    16   ar
    16     2     3   ar
    17     6     5   ar
    18    21    22    1
    19     3     4   ar
    20     5     4   ar
    21     5     8    1
    22     8    10    1
    23     8     9    1
