@<TRIPOS>MOLECULE
ZINC56838400_replica-1.pdb
 26 28 0 0 0
SMALL
GASTEIGER

@<TRIPOS>ATOM
      1  C7         9.4320   34.0900   60.1380 C.3     0  <0>0        0.1182
      2  N2         8.4170   33.1300   60.5810 N.am    0  <0>0       -0.2829
      3  C6         8.0110   32.1480   59.7520 C.2     0  <0>0        0.3045
      4  N1         7.0060   31.3300   60.1200 N.am    0  <0>0       -0.2608
      5  O2         8.5530   32.0000   58.6750 O.2     0  <0>0       -0.2526
      6  C2         6.6260   30.1750   59.2890 C.3     0  <0>0        0.1065
      7  C5         6.2540   31.5630   61.3640 C.3     0  <0>0        0.1270
      8  C1         7.6680   29.9690   58.1880 C.3     0  <0>0        0.0242
      9  C3         6.5680   28.9330   60.1850 C.3     0  <0>0        0.1619
     10  O1         5.7340   29.2050   61.3130 O.3     0  <0>0       -0.3502
     11  C4         6.2130   30.2530   62.1580 C.3     0  <0>0        0.1637
     12  H11        8.0380   33.2020   61.4710 H       0  <0>0        0.1515
     13  C8         8.7880   35.4350   59.9160 C.ar    0  <0>0       -0.0001
     14  C13        7.8140   35.8860   60.7860 C.ar    0  <0>0       -0.0001
     15  C12        7.2260   37.1200   60.5870 C.ar    0  <0>0        0.0294
     16  C11        7.6050   37.9010   59.5080 C.ar    0  <0>0        0.1401
     17  C10        8.5770   37.4460   58.6330 C.ar    0  <0>0        0.0294
     18  F1         7.0270   39.1060   59.3090 F       0  <0>0       -0.2042
     19  C9         9.1670   36.2130   58.8380 C.ar    0  <0>0       -0.0001
     20  C14       10.5010   34.2130   61.1930 C.ar    0  <0>0       -0.0001
     21  C19       10.9160   33.0930   61.8880 C.ar    0  <0>0       -0.0001
     22  C18       11.8990   33.2030   62.8530 C.ar    0  <0>0        0.0294
     23  C17       12.4610   34.4370   63.1310 C.ar    0  <0>0        0.1401
     24  C16       12.0400   35.5590   62.4380 C.ar    0  <0>0        0.0294
     25  F2        13.4180   34.5470   64.0770 F       0  <0>0       -0.2042
     26  C15       11.0610   35.4460   61.4700 C.ar    0  <0>0       -0.0001
@<TRIPOS>BOND
     1     8     6    1
     2    17    19   ar
     3    17    16   ar
     4     5     3    2
     5    19    13   ar
     6     6     4    1
     7     6     9    1
     8    18    16    1
     9    16    15   ar
    10     3     4   am
    11     3     2   am
    12    13     1    1
    13    13    14   ar
    14     4     7    1
    15     1     2    1
    16     1    20    1
    17     9    10    1
    18     2    12    1
    19    15    14   ar
    20    20    26   ar
    21    20    21   ar
    22    10    11    1
    23     7    11    1
    24    26    24   ar
    25    21    22   ar
    26    24    23   ar
    27    22    23   ar
    28    23    25    1
