@<TRIPOS>MOLECULE
ZINC00516744_replica-1.pdb
 26 27 0 0 0
SMALL
GASTEIGER

@<TRIPOS>ATOM
      1  N2         0.8180   33.0820   56.1960 N.am    0  <0>0       -0.2028
      2  C10        0.4160   31.8700   56.6270 C.2     0  <0>0        0.2856
      3  O2         1.1320   31.2190   57.3590 O.2     0  <0>0       -0.2693
      4  H11        0.2460   33.6030   55.6110 H       0  <0>0        0.1774
      5  N1         2.0620   33.5890   56.5940 N.2     0  <0>0       -0.1775
      6  C9         2.3340   34.8470   56.4250 C.2     0  <0>0        0.1176
      7  C6         3.6430   35.3810   56.8440 C.ar    0  <0>0        0.0209
      8  C5         3.9180   35.5810   58.1990 C.ar    0  <0>0        0.0047
      9  C4         5.1420   36.0810   58.5860 C.ar    0  <0>0        0.0369
     10  C3         6.1030   36.3860   57.6300 C.ar    0  <0>0        0.1386
     11  C8         5.8350   36.1890   56.2810 C.ar    0  <0>0        0.0369
     12  C7         4.6140   35.6840   55.8860 C.ar    0  <0>0        0.0047
     13  O1         7.3090   36.8780   58.0150 O.3     0  <0>0       -0.4755
     14  C2         8.1150   37.4870   57.0040 C.3     0  <0>0        0.2055
     15  C1         8.6090   38.8490   57.4970 C.3     0  <0>0        0.0512
     16  C11       -0.9220   31.3240   56.1990 C.3     0  <0>0        0.2911
     17  O3        -0.9350   29.9060   56.3720 O.3     0  <0>0       -0.4656
     18  C12       -0.8710   29.1470   55.2470 C.ar    0  <0>0        0.1393
     19  C17       -1.5370   29.5500   54.0980 C.ar    0  <0>0        0.0366
     20  C16       -1.4720   28.7760   52.9560 C.ar    0  <0>0       -0.0012
     21  C15       -0.7420   27.6020   52.9560 C.ar    0  <0>0       -0.0223
     22  C14       -0.0770   27.1980   54.0990 C.ar    0  <0>0       -0.0012
     23  C13       -0.1390   27.9680   55.2440 C.ar    0  <0>0        0.0366
     24  C18       -0.6720   26.7600   51.7080 C.3     0  <0>0        0.0224
     25  C19       -0.5900   25.2820   52.0930 C.3     0  <0>0        0.0047
     26  C20       -1.9230   26.9990   50.8600 C.3     0  <0>0        0.0047
@<TRIPOS>BOND
     1    26    24    1
     2    24    25    1
     3    24    21    1
     4    20    21   ar
     5    20    19   ar
     6    21    22   ar
     7    19    18   ar
     8    22    23   ar
     9    23    18   ar
    10    18    17    1
    11     4     1    1
    12    12    11   ar
    13    12     7   ar
    14     1     5    1
    15     1     2   am
    16    16    17    1
    17    16     2    1
    18    11    10   ar
    19     6     5    2
    20     6     7    1
    21     2     3    2
    22     7     8   ar
    23    14    15    1
    24    14    13    1
    25    10    13    1
    26    10     9   ar
    27     8     9   ar
