@<TRIPOS>MOLECULE
ZINC27528574_replica-1.pdb
 28 30 0 0 0
SMALL
GASTEIGER

@<TRIPOS>ATOM
      1  C8         9.0260   36.2450   58.7190 C.ar    0  <0>0        0.0449
      2  C9         9.0930   37.2080   59.7170 C.ar    0  <0>0        0.0140
      3  C10        9.8770   36.9900   60.8340 C.ar    0  <0>0       -0.0014
      4  C11       10.5940   35.8130   60.9570 C.ar    0  <0>0       -0.0026
      5  C12       10.5330   34.8550   59.9630 C.ar    0  <0>0       -0.0014
      6  C13        9.7470   35.0640   58.8470 C.ar    0  <0>0        0.0140
      7  N2         8.2350   36.4620   57.5890 N.pl3   0  <0>0       -0.3291
      8  H7         8.5370   36.0420   56.6180 H       0  <0>0        0.1471
      9  C7         7.0040   37.2490   57.6940 C.3     0  <0>0        0.1143
     10  C3         5.8240   36.3220   57.8270 C.ar    0  <0>0       -0.0010
     11  C2         5.2160   36.1470   59.0560 C.ar    0  <0>0       -0.0025
     12  C1         4.1340   35.2970   59.1770 C.ar    0  <0>0        0.0014
     13  C6         3.6580   34.6210   58.0680 C.ar    0  <0>0        0.0241
     14  C5         4.2650   34.7960   56.8390 C.ar    0  <0>0        0.1426
     15  C4         5.3460   35.6500   56.7170 C.ar    0  <0>0        0.0215
     16  N1         3.7560   34.0730   55.6520 N.pl3   0  <0>0        0.0577
     17  O1         4.2690   34.2530   54.5620 O.2     0  <0>0       -0.1261
     18  O2         2.8220   33.2990   55.7660 O.2     0  <0>0       -0.1261
     19  C14       11.4480   35.5780   62.1770 C.3     0  <0>0        0.1143
     20  N3        12.4680   34.5720   61.8720 N.pl3   0  <0>0       -0.3291
     21  H14       13.2380   34.7810   61.1160 H       0  <0>0        0.1471
     22  C15       12.4610   33.3460   62.5420 C.ar    0  <0>0        0.0449
     23  C20       11.2790   32.6250   62.6620 C.ar    0  <0>0        0.0148
     24  C19       11.2760   31.4130   63.3240 C.ar    0  <0>0        0.0080
     25  C18       12.4480   30.9160   63.8670 C.ar    0  <0>0        0.0346
     26  C17       13.6260   31.6320   63.7490 C.ar    0  <0>0        0.0080
     27 Br         12.4390   29.2570   64.7740 Br      0  <0>0       -0.0490
     28  C16       13.6360   32.8440   63.0880 C.ar    0  <0>0        0.0148
@<TRIPOS>BOND
     1    17    16    2
     2    16    18    2
     3    16    14    1
     4     8     7    1
     5    15    14   ar
     6    15    10   ar
     7    14    13   ar
     8     7     9    1
     9     7     1    1
    10     9    10    1
    11    10    11   ar
    12    13    12   ar
    13     1     6   ar
    14     1     2   ar
    15     6     5   ar
    16    11    12   ar
    17     2     3   ar
    18     5     4   ar
    19     3     4   ar
    20     4    19    1
    21    21    20    1
    22    20    19    1
    23    20    22    1
    24    22    23   ar
    25    22    28   ar
    26    23    24   ar
    27    28    26   ar
    28    24    25   ar
    29    26    25   ar
    30    25    27    1
