@<TRIPOS>MOLECULE
ZINC63717099_replica-1.pdb
 25 26 0 0 0
SMALL
GASTEIGER

@<TRIPOS>ATOM
      1  C3         6.8170   36.1510   58.0660 C.2     0  <0>0        0.3396
      2  O1         6.0360   36.7200   58.7920 O.2     0  <0>0       -0.2479
      3  C2         6.3680   34.9530   57.2700 C.3     0  <0>0        0.1744
      4  C1         7.2940   34.7650   56.0660 C.3     0  <0>0        0.0335
      5  N1         4.9960   35.1620   56.8020 N.am    0  <0>0       -0.2624
      6  C14        4.0330   34.2740   57.1200 C.2     0  <0>0        0.4018
      7  O4         4.3040   33.2990   57.7930 O.2     0  <0>0       -0.2264
      8  H16        4.7800   35.9400   56.2650 H       0  <0>0        0.1532
      9  O5         2.7720   34.4670   56.6900 O.3     0  <0>0       -0.4419
     10  C15        1.8350   34.9800   57.6390 C.3     0  <0>0        0.1378
     11  C16        0.7180   35.7250   56.9050 C.3     0  <0>0        0.0437
     12  C17        1.2340   33.8230   58.4400 C.3     0  <0>0        0.0437
     13  C18        2.5480   35.9420   58.5910 C.3     0  <0>0        0.0437
     14  O2         8.0820   36.5870   57.9680 O.3     0  <0>0       -0.4230
     15  C4         8.9300   36.3230   58.9970 C.ar    0  <0>0        0.1487
     16  C9         9.6510   35.1380   59.0150 C.ar    0  <0>0        0.0407
     17  C8        10.5160   34.8720   60.0580 C.ar    0  <0>0        0.0400
     18  C7        10.6560   35.7850   61.0930 C.ar    0  <0>0        0.1388
     19  C6         9.9310   36.9670   61.0780 C.ar    0  <0>0        0.0400
     20  C5         9.0700   37.2350   60.0320 C.ar    0  <0>0        0.0407
     21  O3        11.5040   35.5210   62.1230 O.3     0  <0>0       -0.4755
     22  C10       12.4080   34.4270   61.9540 C.3     0  <0>0        0.2053
     23  C11       12.2670   33.4610   63.1330 C.3     0  <0>0        0.0438
     24  C13       11.4660   32.1790   62.9040 C.3     0  <0>0        0.0038
     25  C12       12.9890   32.1160   63.0340 C.3     0  <0>0        0.0038
@<TRIPOS>BOND
     1     4     3    1
     2     8     5    1
     3     9     6    1
     4     9    10    1
     5     5     6   am
     6     5     3    1
     7    11    10    1
     8     6     7    2
     9     3     1    1
    10    10    12    1
    11    10    13    1
    12    14     1    1
    13    14    15    1
    14     1     2    2
    15    15    16   ar
    16    15    20   ar
    17    16    17   ar
    18    20    19   ar
    19    17    18   ar
    20    19    18   ar
    21    18    21    1
    22    22    21    1
    23    22    23    1
    24    24    25    1
    25    24    23    1
    26    25    23    1
