@<TRIPOS>MOLECULE
ZINC11947025_replica-1.pdb
 25 26 0 0 0
SMALL
GASTEIGER

@<TRIPOS>ATOM
      1  C8        -0.8560   27.3390   56.5040 C.3     0  <0>0        0.2524
      2  O1        -0.2440   28.0790   55.4470 O.3     0  <0>0       -0.4721
      3  C7        -0.5470   27.7050   54.1760 C.ar    0  <0>0        0.1306
      4  C2        -0.0780   26.4990   53.6760 C.ar    0  <0>0        0.0118
      5  C1         0.7690   25.6020   54.5410 C.3     0  <0>0        0.0342
      6  C3        -0.3930   26.1180   52.3850 C.ar    0  <0>0       -0.0013
      7  C4        -1.1690   26.9410   51.5910 C.ar    0  <0>0       -0.0004
      8  C5        -1.6330   28.1470   52.0850 C.ar    0  <0>0       -0.0013
      9  C6        -1.3220   28.5310   53.3750 C.ar    0  <0>0        0.0108
     10  C17       -1.8280   29.8450   53.9120 C.3     0  <0>0        0.0218
     11  C18       -2.6330   29.5990   55.1890 C.3     0  <0>0        0.0045
     12  C19       -0.6400   30.7580   54.2260 C.3     0  <0>0        0.0045
     13  C20       -2.7210   30.5140   52.8660 C.3     0  <0>0        0.0045
     14  C9        -0.1380   27.6420   57.8210 C.3     0  <0>0        0.2525
     15  O2        -0.9020   28.5850   58.5740 O.3     0  <0>0       -0.4714
     16  C10       -0.3160   29.7820   58.8420 C.ar    0  <0>0        0.1388
     17  C15       -0.1230   30.7010   57.8260 C.ar    0  <0>0        0.0386
     18  C14        0.4740   31.9310   58.1070 C.ar    0  <0>0        0.0254
     19  C13        0.8840   32.2200   59.4110 C.ar    0  <0>0        0.0019
     20  C12        0.6930   31.2940   60.4140 C.ar    0  <0>0        0.0032
     21  C11        0.0950   30.0780   60.1350 C.ar    0  <0>0        0.0369
     22  C16        0.6780   32.9200   57.0300 C.2     0  <0>0        0.1399
     23  N1         1.6900   32.8080   56.2320 N.2     0  <0>0       -0.0847
     24  O3         2.6770   31.8220   56.4750 O.2     0  <0>0       -0.4087
     25  H16        3.4900   32.1680   56.8680 H       0  <0>0        0.3278
@<TRIPOS>BOND
     1     7     8   ar
     2     7     6   ar
     3     8     9   ar
     4     6     4   ar
     5    13    10    1
     6     9    10    1
     7     9     3   ar
     8     4     3   ar
     9     4     5    1
    10    10    12    1
    11    10    11    1
    12     3     2    1
    13     2     1    1
    14    23    24    1
    15    23    22    2
    16    24    25    1
    17     1    14    1
    18    22    18    1
    19    14    15    1
    20    17    18   ar
    21    17    16   ar
    22    18    19   ar
    23    15    16    1
    24    16    21   ar
    25    19    20   ar
    26    21    20   ar
