@<TRIPOS>MOLECULE
ZINC01504978_replica-1.pdb
 23 25 0 0 0
SMALL
GASTEIGER

@<TRIPOS>ATOM
      1  C10       -0.4400   30.7310   55.1440 C.2     0  <0>0        0.1888
      2  C11       -1.8940   30.5510   55.2800 C.2     0  <0>0        0.3735
      3  O1        -2.6670   31.2340   55.9270 O.2     0  <0>0       -0.2419
      4  O2        -2.1900   29.4640   54.5330 O.3     0  <0>0       -0.3910
      5  C12       -1.0530   29.0000   53.9810 C.2     0  <0>0        0.2865
      6  N1        -0.0240   29.7280   54.3210 N.2     0  <0>0       -0.3651
      7  C9         0.3410   31.7180   55.7260 C.3     0  <0>0        0.0776
      8  C8         0.4120   31.8220   57.1250 C.3     0  <0>0        0.0687
      9 Br          0.9700   30.3390   58.1570 Br      0  <0>0       -0.0809
     10  C7         0.0800   32.9890   57.7370 C.3     0  <0>0        0.0381
     11  C4         1.0860   34.0470   57.8970 C.ar    0  <0>0       -0.0213
     12  C3         1.1330   35.1160   56.9940 C.ar    0  <0>0       -0.0042
     13  C2         2.0800   36.1050   57.1520 C.ar    0  <0>0       -0.0003
     14  C1         2.9840   36.0430   58.1990 C.ar    0  <0>0       -0.0000
     15  C6         2.9430   34.9890   59.0960 C.ar    0  <0>0       -0.0003
     16  C5         2.0030   33.9920   58.9530 C.ar    0  <0>0       -0.0042
     17  C13       -0.9800   27.8210   53.0980 C.ar    0  <0>0        0.0939
     18  C18       -1.6270   27.8310   51.8570 C.ar    0  <0>0        0.1457
     19  C17       -1.5480   26.7240   51.0320 C.ar    0  <0>0        0.0298
     20  F1        -2.3220   28.9200   51.4630 F       0  <0>0       -0.2040
     21  C16       -0.8410   25.6060   51.4370 C.ar    0  <0>0        0.0023
     22  C15       -0.2040   25.5880   52.6660 C.ar    0  <0>0        0.0003
     23  C14       -0.2680   26.6870   53.4970 C.ar    0  <0>0        0.0080
@<TRIPOS>BOND
     1    19    21   ar
     2    19    18   ar
     3    21    22   ar
     4    20    18    1
     5    18    17   ar
     6    22    23   ar
     7    17    23   ar
     8    17     5    1
     9     5     6    2
    10     5     4    1
    11     6     1    2
    12     4     2    1
    13     1     2    1
    14     1     7    1
    15     2     3    2
    16     7     8    1
    17    12    13   ar
    18    12    11   ar
    19     8    10    1
    20     8     9    1
    21    13    14   ar
    22    10    11    1
    23    11    16   ar
    24    14    15   ar
    25    16    15   ar
