@<TRIPOS>MOLECULE
ZINC66128516_replica-1.pdb
 28 31 0 0 0
SMALL
GASTEIGER

@<TRIPOS>ATOM
      1  C5         6.3300   36.0370   58.2080 C.ar    0  <0>0        0.1375
      2  C6         5.6830   36.5930   59.3150 C.ar    0  <0>0        0.0367
      3  C7         6.3670   36.8770   60.4550 C.ar    0  <0>0        0.0031
      4  C8         7.7450   36.6080   60.5270 C.ar    0  <0>0       -0.0000
      5  C9         8.4820   36.8870   61.6900 C.ar    0  <0>0       -0.0000
      6  C10        9.8150   36.6140   61.7240 C.ar    0  <0>0       -0.0000
      7  C11       10.4630   36.0590   60.6220 C.ar    0  <0>0       -0.0000
      8  C12        9.7810   35.7750   59.4790 C.ar    0  <0>0       -0.0001
      9  C13        8.4030   36.0440   59.4050 C.ar    0  <0>0        0.0021
     10  C14        7.6660   35.7590   58.2440 C.ar    0  <0>0        0.0486
     11  C15        8.3480   35.1530   57.0440 C.3     0  <0>0        0.1759
     12  N2         7.3570   34.9070   55.9970 N.am    0  <0>0       -0.2562
     13  C22        6.6830   33.7440   55.9270 C.2     0  <0>0        0.2516
     14  C23        7.0880   35.9490   55.0020 C.3     0  <0>0        0.1170
     15  C21        7.0110   32.6660   56.8780 C.ar    0  <0>0        0.0667
     16  O2         5.8160   33.5840   55.0910 O.2     0  <0>0       -0.2698
     17  C16        8.1970   32.7710   57.6260 C.ar    0  <0>0        0.0503
     18  C20        6.1840   31.5590   57.0440 C.ar    0  <0>0        0.0058
     19  N1         8.9940   33.8950   57.4350 N.pl3   0  <0>0       -0.3150
     20  C17        8.5400   31.7720   58.5210 C.ar    0  <0>0        0.0145
     21  H17        9.9550   33.8470   57.5580 H       0  <0>0        0.1486
     22  C18        7.7120   30.6780   58.6740 C.ar    0  <0>0        0.0013
     23  C19        6.5400   30.5730   57.9410 C.ar    0  <0>0        0.0002
     24  O1         5.6200   35.7650   57.0810 O.3     0  <0>0       -0.4794
     25  C3         4.2010   35.9220   57.1560 C.3     0  <0>0        0.1660
     26  C4         3.6590   36.3300   55.7850 C.3     0  <0>0        0.0472
     27  C2         3.5640   34.5970   57.5820 C.3     0  <0>0        0.0435
     28  C1         2.4020   34.8740   58.5370 C.3     0  <0>0        0.0038
@<TRIPOS>BOND
     1    14    12    1
     2    16    13    2
     3    26    25    1
     4    13    12   am
     5    13    15    1
     6    12    11    1
     7    15    18   ar
     8    15    17   ar
     9    18    23   ar
    10    11    19    1
    11    11    10    1
    12    24    25    1
    13    24     1    1
    14    25    27    1
    15    19    21    1
    16    19    17    1
    17    27    28    1
    18    17    20   ar
    19    23    22   ar
    20     1    10   ar
    21     1     2   ar
    22    10     9   ar
    23    20    22   ar
    24     2     3   ar
    25     9     8   ar
    26     9     4   ar
    27     8     7   ar
    28     3     4   ar
    29     4     5   ar
    30     7     6   ar
    31     5     6   ar
