@<TRIPOS>MOLECULE
ZINC44053933_replica-1.pdb
 22 23 0 0 0
SMALL
GASTEIGER

@<TRIPOS>ATOM
      1  C8         9.5250   34.4730   60.5210 C.3     0  <0>0        0.0059
      2  C5         9.1840   35.6330   59.6200 C.ar    0  <0>0       -0.0385
      3  C4         9.1580   36.9170   60.1280 C.ar    0  <0>0       -0.0065
      4  C3         8.8470   37.9810   59.3020 C.ar    0  <0>0       -0.0046
      5  C2         8.5640   37.7600   57.9680 C.ar    0  <0>0       -0.0219
      6  C1         8.2250   38.9200   57.0670 C.3     0  <0>0        0.0310
      7  C7         8.5860   36.4740   57.4600 C.ar    0  <0>0       -0.0046
      8  C6         8.9010   35.4110   58.2850 C.ar    0  <0>0       -0.0065
      9  C9        11.0070   34.5360   60.8980 C.3     0  <0>0        0.1884
     10  O1        11.1440   34.4050   62.3130 O.3     0  <0>0       -0.4774
     11  C10       12.1520   33.6130   62.7640 C.ar    0  <0>0        0.1378
     12  C15       11.9400   32.2540   62.9440 C.ar    0  <0>0        0.0326
     13  C14       12.9680   31.4490   63.3980 C.ar    0  <0>0       -0.0192
     14  C13       14.2050   32.0010   63.6810 C.ar    0  <0>0       -0.0083
     15  C16       12.7410   29.9720   63.5870 C.3     0  <0>0        0.0311
     16  C12       14.4170   33.3560   63.5080 C.ar    0  <0>0       -0.0192
     17  C11       13.3930   34.1630   63.0490 C.ar    0  <0>0        0.0326
     18  C17       15.7650   33.9530   63.8180 C.3     0  <0>0        0.0311
     19  N1         9.2520   33.2110   59.8180 N.4     0  <0>0        0.3886
     20  C18        8.2790   32.4230   60.5870 C.3     0  <0>0       -0.1049
     21  H20        8.8760   33.4100   58.9030 H       0  <0>0       -0.0839
     22  H24       10.1090   32.6870   59.7220 H       0  <0>0       -0.0839
@<TRIPOS>BOND
     1     6     5    1
     2     7     5   ar
     3     7     8   ar
     4     5     4   ar
     5     8     2   ar
     6    21    19    1
     7     4     3   ar
     8     2     3   ar
     9     2     1    1
    10    22    19    1
    11    19     1    1
    12    19    20    1
    13     1     9    1
    14     9    10    1
    15    10    11    1
    16    11    12   ar
    17    11    17   ar
    18    12    13   ar
    19    17    16   ar
    20    13    15    1
    21    13    14   ar
    22    16    14   ar
    23    16    18    1
