@<TRIPOS>MOLECULE
ZINC06112850_replica-1.pdb
 27 30 0 0 0
SMALL
GASTEIGER

@<TRIPOS>ATOM
      1  C1        -2.0050   30.9130   55.9330 C.3     0  <0>0        0.0337
      2  C2        -0.5600   30.4510   55.7340 C.3     0  <0>0        0.1467
      3  C3         0.1040   30.1860   57.0710 C.2     0  <0>0        0.2526
      4  O1        -0.2280   29.3700   57.9040 O.2     0  <0>0       -0.2723
      5  N1         1.1400   31.0440   57.1390 N.am    0  <0>0       -0.2084
      6  C4         1.2230   31.8080   56.0440 C.2     0  <0>0        0.3105
      7  O2         2.0760   32.6570   55.8750 O.2     0  <0>0       -0.2521
      8  N2         0.2570   31.5300   55.1510 N.am    0  <0>0       -0.2806
      9  H4         0.1230   31.9570   54.2900 H       0  <0>0        0.1516
     10  C12       -0.5130   29.2210   54.8640 C.ar    0  <0>0        0.0020
     11  C21       -1.1950   29.2070   53.6870 C.ar    0  <0>0       -0.0023
     12  C20       -1.1530   28.0620   52.8730 C.ar    0  <0>0       -0.0002
     13  C15       -0.3990   26.9370   53.2940 C.ar    0  <0>0       -0.0000
     14  C19       -1.8440   28.0090   51.6510 C.ar    0  <0>0       -0.0000
     15  C14        0.2920   26.9900   54.5160 C.ar    0  <0>0       -0.0003
     16  C16       -0.3560   25.7920   52.4800 C.ar    0  <0>0       -0.0000
     17  C13        0.2280   28.1160   55.2780 C.ar    0  <0>0       -0.0023
     18  C17       -1.0380   25.7780   51.3020 C.ar    0  <0>0       -0.0000
     19  C18       -1.7750   26.8860   50.8860 C.ar    0  <0>0       -0.0000
     20  C5         2.0620   31.1310   58.2750 C.3     0  <0>0        0.1290
     21  C6         1.4000   31.8800   59.4030 C.ar    0  <0>0       -0.0018
     22  C11        1.1720   33.2400   59.2910 C.ar    0  <0>0       -0.0017
     23  C10        0.5640   33.9270   60.3250 C.ar    0  <0>0        0.0111
     24  C9         0.1830   33.2540   61.4720 C.ar    0  <0>0        0.0577
     25  C8         0.4120   31.8940   61.5840 C.ar    0  <0>0        0.0111
     26 Cl         -0.5800   34.1160   62.7720 Cl      0  <0>0       -0.0822
     27  C7         1.0150   31.2070   60.5470 C.ar    0  <0>0       -0.0017
@<TRIPOS>BOND
     1    19    18   ar
     2    19    14   ar
     3    18    16   ar
     4    14    12   ar
     5    16    13   ar
     6    12    13   ar
     7    12    11   ar
     8    13    15   ar
     9    11    10   ar
    10     9     8    1
    11    15    17   ar
    12    10    17   ar
    13    10     2    1
    14     8     2    1
    15     8     6   am
    16     2     1    1
    17     2     3    1
    18     7     6    2
    19     6     5   am
    20     3     5   am
    21     3     4    2
    22     5    20    1
    23    20    21    1
    24    22    21   ar
    25    22    23   ar
    26    21    27   ar
    27    23    24   ar
    28    27    25   ar
    29    24    25   ar
    30    24    26    1
