@<TRIPOS>MOLECULE
ZINC15294394_replica-1.pdb
 25 26 0 0 0
SMALL
GASTEIGER

@<TRIPOS>ATOM
      1  N1         0.7930   30.3430   55.3430 N.am    0  <0>0       -0.3057
      2  C5         0.5580   31.4020   56.1440 C.2     0  <0>0        0.2014
      3  O1        -0.4970   31.4940   56.7340 O.2     0  <0>0       -0.2774
      4  H9         1.6370   30.2700   54.8710 H       0  <0>0        0.1494
      5  C6         1.6080   32.4710   56.3060 C.3     0  <0>0        0.0103
      6  N2         2.0600   32.4860   57.7140 N.4     0  <0>0        0.3945
      7  C7         3.5340   32.3900   57.7720 C.3     0  <0>0       -0.0995
      8  H24        1.6540   31.6790   58.2030 H       0  <0>0       -0.0786
      9  C8         1.6070   33.7260   58.3770 C.3     0  <0>0       -0.0426
     10  C9         1.0000   33.3710   59.7100 C.ar    0  <0>0       -0.0128
     11  S1         0.8060   31.7650   60.4640 S.2     0  <0>0       -0.0820
     12  C12        0.0200   32.2900   61.9780 C.ar    0  <0>0        0.0866
     13  C11       -0.0490   33.6340   61.8060 C.ar    0  <0>0        0.0181
     14 Cl         -0.5240   31.3290   63.3190 Cl      0  <0>0       -0.0752
     15  C10        0.4540   34.1870   60.6430 C.ar    0  <0>0        0.0015
     16  C4        -0.2280   29.3050   55.1850 C.3     0  <0>0        0.0936
     17  C3        -0.9310   29.4820   53.8380 C.3     0  <0>0        0.0419
     18  C2        -2.3820   29.9090   54.0720 C.3     0  <0>0        0.0061
     19  C1        -2.8670   29.3560   55.4140 C.3     0  <0>0        0.0004
     20  C13       -0.9080   28.1780   53.0830 C.ar    0  <0>0       -0.0208
     21  C18       -1.5680   28.0670   51.8740 C.ar    0  <0>0       -0.0042
     22  C17       -1.5460   26.8700   51.1820 C.ar    0  <0>0       -0.0003
     23  C16       -0.8630   25.7850   51.6980 C.ar    0  <0>0       -0.0000
     24  C15       -0.2020   25.8970   52.9070 C.ar    0  <0>0       -0.0003
     25  C14       -0.2200   27.0940   53.5970 C.ar    0  <0>0       -0.0042
@<TRIPOS>BOND
     1    22    23   ar
     2    22    21   ar
     3    23    24   ar
     4    21    20   ar
     5    24    25   ar
     6    20    25   ar
     7    20    17    1
     8    17    18    1
     9    17    16    1
    10    18    19    1
    11     4     1    1
    12    16     1    1
    13     1     2   am
    14     2     5    1
    15     2     3    2
    16     5     6    1
    17     6     7    1
    18     6     8    1
    19     6     9    1
    20     9    10    1
    21    10    11   ar
    22    10    15   ar
    23    11    12   ar
    24    15    13   ar
    25    13    12   ar
    26    12    14    1
