@<TRIPOS>MOLECULE
ZINC16227855_replica-1.pdb
 28 31 0 0 0
SMALL
GASTEIGER

@<TRIPOS>ATOM
      1  C2         9.5320   34.6750   59.8690 C.2     0  <0>0        0.1407
      2  C3         9.7300   36.0580   59.8670 C.2     0  <0>0        0.0331
      3  C4         9.1160   36.8490   58.9450 C.2     0  <0>0       -0.0120
      4  C5         8.2650   36.2750   57.9880 C.3     0  <0>0        0.1008
      5  C6         7.6110   37.0690   57.0240 C.2     0  <0>0        0.0626
      6  C7         6.7980   36.4520   56.1210 C.2     0  <0>0        0.0388
      7  C8         6.6300   35.0610   56.1690 C.2     0  <0>0        0.1566
      8  N1         7.2430   34.3240   57.0730 N.2     0  <0>0       -0.3993
      9  C9         8.0540   34.8740   57.9840 C.2     0  <0>0        0.1203
     10  C10        8.7030   34.0810   58.9430 C.2     0  <0>0        0.0651
     11  S1         5.5740   34.2800   54.9930 S.3     0  <0>0       -0.0751
     12  C11        4.1270   35.3630   55.1040 C.3     0  <0>0        0.1206
     13  C12        3.2420   34.9020   56.2350 C.2     0  <0>0        0.1199
     14  N3         2.7340   33.6760   56.3760 N.2     0  <0>0       -0.3927
     15  C18        2.0070   33.6320   57.4840 C.2     0  <0>0        0.1867
     16  N2         2.0520   34.8700   58.0700 N.pl3   0  <0>0       -0.2541
     17  C17        1.2660   32.5990   58.0910 C.2     0  <0>0        0.0489
     18  C13        2.8380   35.6610   57.2780 C.3     0  <0>0        0.1531
     19  C14        1.3840   35.1070   59.2380 C.2     0  <0>0        0.0791
     20  C15        0.6690   34.1280   59.8310 C.2     0  <0>0        0.0727
     21  C16        0.6040   32.8470   59.2530 C.2     0  <0>0        0.0167
     22 Cl         -0.1730   34.4490   61.3150 Cl      0  <0>0       -0.0809
     23  C19        7.8070   38.5620   56.9930 C.3     0  <0>0        0.4157
     24  F1         7.3960   39.1120   58.2120 F       0  <0>0       -0.1661
     25  F2         9.1590   38.8520   56.7840 F       0  <0>0       -0.1661
     26  F3         7.0460   39.1110   55.9550 F       0  <0>0       -0.1661
     27  O1        10.1600   33.9080   60.7970 O.2     0  <0>0       -0.4714
     28  C1        11.3250   34.4600   61.4150 C.3     0  <0>0        0.2525
@<TRIPOS>BOND
     1    11    12    1
     2    11     7    1
     3    12    13    1
     4    26    23    1
     5     6     7    1
     6     6     5    2
     7     7     8    2
     8    13    14    2
     9    13    18    1
    10    14    15    2
    11    25    23    1
    12    23     5    1
    13    23    24    1
    14     5     4    1
    15     8     9    2
    16    18    16    1
    17    15    16    1
    18    15    17    1
    19     9     4    1
    20     9    10    1
    21     4     3    1
    22    16    19    1
    23    17    21    2
    24    10     1    2
    25     3     2    2
    26    19    20    2
    27    21    20    1
    28    20    22    1
    29     2     1    1
    30     1    27    1
    31    27    28    1
