@<TRIPOS>MOLECULE
ZINC00187280_replica-1.pdb
 21 22 0 0 0
SMALL
GASTEIGER

@<TRIPOS>ATOM
      1  C4        -1.2610   28.4770   55.3450 C.3     0  <0>0        0.1197
      2  C3        -1.1310   29.9800   55.5990 C.3     0  <0>0        0.1880
      3  C2         0.1380   30.5040   54.9240 C.3     0  <0>0        0.0316
      4  C1         0.7540   31.6090   55.7840 C.3     0  <0>0        0.0023
      5  N2        -2.2980   30.6710   55.0470 N.pl3   0  <0>0        0.0344
      6  O1        -3.0930   31.2170   55.7920 O.2     0  <0>0       -0.1310
      7  O2        -2.4760   30.7000   53.8420 O.2     0  <0>0       -0.1310
      8  C5        -1.1210   27.7330   56.6480 C.ar    0  <0>0       -0.0025
      9  C10       -0.0910   26.8290   56.8210 C.ar    0  <0>0       -0.0026
     10  C9         0.0370   26.1450   58.0160 C.ar    0  <0>0       -0.0003
     11  C8        -0.8640   26.3690   59.0400 C.ar    0  <0>0       -0.0000
     12  C7        -1.8940   27.2750   58.8680 C.ar    0  <0>0       -0.0003
     13  C6        -2.0200   27.9610   57.6740 C.ar    0  <0>0       -0.0026
     14  N1        -0.2100   28.0460   54.4210 N.pl3   0  <0>0       -0.3290
     15  H13        0.7120   28.3010   54.5820 H       0  <0>0        0.1471
     16  C11       -0.5340   27.2650   53.3090 C.ar    0  <0>0        0.0449
     17  C16       -0.1060   25.9460   53.2350 C.ar    0  <0>0        0.0143
     18  C15       -0.4280   25.1770   52.1350 C.ar    0  <0>0        0.0013
     19  C14       -1.1750   25.7200   51.1050 C.ar    0  <0>0        0.0001
     20  C13       -1.6030   27.0340   51.1750 C.ar    0  <0>0        0.0013
     21  C12       -1.2790   27.8090   52.2710 C.ar    0  <0>0        0.0143
@<TRIPOS>BOND
     1    19    20   ar
     2    19    18   ar
     3    20    21   ar
     4    18    17   ar
     5    21    16   ar
     6    17    16   ar
     7    16    14    1
     8     7     5    2
     9    14    15    1
    10    14     1    1
    11     3     2    1
    12     3     4    1
    13     5     2    1
    14     5     6    2
    15     1     2    1
    16     1     8    1
    17     8     9   ar
    18     8    13   ar
    19     9    10   ar
    20    13    12   ar
    21    10    11   ar
    22    12    11   ar
