@<TRIPOS>MOLECULE
ZINC13427876_replica-1.pdb
 28 30 0 0 0
SMALL
GASTEIGER

@<TRIPOS>ATOM
      1  C13        0.8400   32.5980   58.6200 C.2     0  <0>0        0.2462
      2  O1         0.3490   32.5830   59.7340 O.2     0  <0>0       -0.2701
      3  N1         1.7730   33.5190   58.3080 N.am    0  <0>0       -0.2982
      4  H11        2.2180   33.4860   57.4460 H       0  <0>0        0.1500
      5  C12        0.4310   31.6490   57.6540 C.2     0  <0>0        0.0582
      6  C11       -0.0430   32.0660   56.4520 C.2     0  <0>0        0.0111
      7  C10       -0.4520   31.1170   55.4870 C.ar    0  <0>0        0.0296
      8  C9        -1.5010   31.1930   54.5760 C.ar    0  <0>0        0.0070
      9  C8        -1.7060   30.1450   53.7250 C.ar    0  <0>0        0.0070
     10  C7        -0.8650   29.0460   53.8050 C.ar    0  <0>0        0.0295
     11  S1         0.2440   29.5140   55.1230 S.2     0  <0>0       -0.0869
     12  C4        -0.8810   27.8050   53.0040 C.ar    0  <0>0        0.0060
     13  C3        -1.5770   27.7610   51.7940 C.ar    0  <0>0        0.0005
     14  C2        -1.5890   26.5980   51.0510 C.ar    0  <0>0        0.0000
     15  C1        -0.9130   25.4780   51.5030 C.ar    0  <0>0        0.0000
     16  C6        -0.2220   25.5160   52.7000 C.ar    0  <0>0        0.0000
     17  C5        -0.1970   26.6730   53.4510 C.ar    0  <0>0        0.0005
     18  C14        2.1170   34.5690   59.2700 C.3     0  <0>0        0.1056
     19  C15        1.9250   35.9400   58.6190 C.3     0  <0>0        0.1381
     20  C16        1.5870   35.7600   57.1600 C.2     0  <0>0        0.3669
     21  O2         0.4390   35.8340   56.7930 O.co2   0  <0>0       -0.2456
     22  O3         2.5620   35.5180   56.2710 O.co2   0  <0>0       -0.2456
     23  C17        3.5550   34.4110   59.6930 C.ar    0  <0>0       -0.0040
     24  C22        3.9240   33.3530   60.5030 C.ar    0  <0>0       -0.0027
     25  C21        5.2430   33.2090   60.8920 C.ar    0  <0>0       -0.0003
     26  C20        6.1920   34.1220   60.4710 C.ar    0  <0>0       -0.0000
     27  C19        5.8220   35.1800   59.6610 C.ar    0  <0>0       -0.0003
     28  C18        4.5050   35.3220   59.2680 C.ar    0  <0>0       -0.0027
@<TRIPOS>BOND
     1    14    15   ar
     2    14    13   ar
     3    15    16   ar
     4    13    12   ar
     5    16    17   ar
     6    12    17   ar
     7    12    10    1
     8     9    10   ar
     9     9     8   ar
    10    10    11   ar
    11     8     7   ar
    12    11     7   ar
    13     7     6    1
    14    22    20   ar
    15     6     5    2
    16    21    20   ar
    17    20    19    1
    18     4     3    1
    19     5     1    1
    20     3     1   am
    21     3    18    1
    22    19    18    1
    23     1     2    2
    24    28    27   ar
    25    28    23   ar
    26    18    23    1
    27    27    26   ar
    28    23    24   ar
    29    26    25   ar
    30    24    25   ar
