@<TRIPOS>MOLECULE
ZINC08185008_replica-1.pdb
 24 26 0 0 0
SMALL
GASTEIGER

@<TRIPOS>ATOM
      1  N1         0.2430   30.3100   54.8000 N.pl3   0  <0>0       -0.1840
      2  H4         1.0100   30.2060   54.2160 H       0  <0>0        0.1767
      3  S1        -1.2350   29.7200   54.3390 S.O2    0  <0>0        0.0779
      4  O1        -1.9100   29.3390   55.5300 O.2     0  <0>0       -0.1498
      5  O2        -1.7780   30.6610   53.4230 O.2     0  <0>0       -0.1498
      6  C3        -0.9450   28.2400   53.4280 C.ar    0  <0>0        0.1527
      7  C2        -1.4330   28.1150   52.1410 C.ar    0  <0>0        0.0248
      8  C1        -1.2060   26.9550   51.4250 C.ar    0  <0>0        0.0312
      9  C6        -0.4920   25.9160   51.9970 C.ar    0  <0>0        0.1425
     10  C5        -0.0040   26.0400   53.2870 C.ar    0  <0>0        0.0606
     11  F1        -0.2710   24.7820   51.2970 F       0  <0>0       -0.2041
     12  C4        -0.2270   27.2040   54.0010 C.ar    0  <0>0        0.1611
     13  F2         0.2540   27.3280   55.2570 F       0  <0>0       -0.2027
     14  C7         0.3820   30.9480   56.0170 C.2     0  <0>0        0.2262
     15  S2         0.6730   30.2360   57.6300 S.3     0  <0>0       -0.0549
     16  C13        0.6970   31.7580   58.5460 C.3     0  <0>0        0.1341
     17  C8         0.4780   32.7200   57.5370 C.2     0  <0>0        0.1528
     18  C12        0.8680   32.0940   59.8670 C.2     0  <0>0        0.0216
     19  N2         0.3280   32.2330   56.2830 N.2     0  <0>0       -0.3805
     20  C9         0.4410   34.0710   57.9570 C.2     0  <0>0        0.1688
     21  C10        0.6140   34.4000   59.2780 C.2     0  <0>0        0.0613
     22  F4         0.2360   35.0490   57.0480 F       0  <0>0       -0.2017
     23  C11        0.8270   33.4240   60.2450 C.2     0  <0>0        0.1395
     24  F3         0.9940   33.7720   61.5400 F       0  <0>0       -0.2044
@<TRIPOS>BOND
     1    11     9    1
     2     8     9   ar
     3     8     7   ar
     4     9    10   ar
     5     7     6   ar
     6    10    12   ar
     7     5     3    2
     8     6    12   ar
     9     6     3    1
    10    12    13    1
    11     2     1    1
    12     3     1    1
    13     3     4    2
    14     1    14    1
    15    14    19    2
    16    14    15    1
    17    19    17    2
    18    22    20    1
    19    17    20    1
    20    17    16    1
    21    15    16    1
    22    20    21    2
    23    16    18    1
    24    21    23    1
    25    18    23    2
    26    23    24    1
