@<TRIPOS>MOLECULE
ZINC41356405_replica-1.pdb
 25 27 0 0 0
SMALL
GASTEIGER

@<TRIPOS>ATOM
      1  C1         8.2020   32.7030   57.6340 C.3     0  <0>0        0.0375
      2  C2         7.9720   34.1850   57.4850 C.ar    0  <0>0        0.0474
      3  C3         7.1840   34.6620   56.4480 C.ar    0  <0>0        0.1474
      4  C4         6.9630   36.0270   56.2990 C.ar    0  <0>0        0.0376
      5  C5         7.5220   36.9140   57.1760 C.ar    0  <0>0        0.0095
      6  C6         8.3160   36.4480   58.2230 C.ar    0  <0>0        0.0764
      7  C7         8.5420   35.0710   58.3880 C.ar    0  <0>0        0.1474
      8  O1         9.3300   34.8650   59.4670 O.3     0  <0>0       -0.4504
      9  C8         9.6680   36.0260   60.0740 C.2     0  <0>0        0.1840
     10  C9        10.4460   36.1570   61.1770 C.2     0  <0>0        0.0408
     11  C16        9.0470   37.1220   59.3120 C.2     0  <0>0        0.2327
     12  O2         9.1110   38.3180   59.5400 O.2     0  <0>0       -0.2832
     13  C10       11.1200   34.9810   61.7450 C.ar    0  <0>0        0.0032
     14  C15       12.3580   35.1210   62.3830 C.ar    0  <0>0        0.0006
     15  C14       12.9820   34.0150   62.9190 C.ar    0  <0>0        0.0067
     16  C13       12.3920   32.7650   62.8170 C.ar    0  <0>0        0.0346
     17  C12       11.1690   32.6180   62.1820 C.ar    0  <0>0        0.0067
     18 Br         13.2600   31.2540   63.5490 Br      0  <0>0       -0.0490
     19  C11       10.5310   33.7150   61.6460 C.ar    0  <0>0        0.0006
     20  O3         6.6240   33.7880   55.5710 O.3     0  <0>0       -0.4235
     21  C17        5.3160   33.5180   55.7000 C.2     0  <0>0        0.3364
     22  O4         4.9370   32.7520   56.5540 O.2     0  <0>0       -0.2483
     23  C18        4.3180   34.1710   54.7760 C.3     0  <0>0        0.1786
     24  C19        5.0320   34.6390   53.5070 C.3     0  <0>0        0.0295
     25 Cl          3.5700   35.5870   55.6030 Cl      0  <0>0       -0.1030
@<TRIPOS>BOND
     1    24    23    1
     2    23    25    1
     3    23    21    1
     4    20    21    1
     5    20     3    1
     6    21    22    2
     7     4     3   ar
     8     4     5   ar
     9     3     2   ar
    10     5     6   ar
    11     2     1    1
    12     2     7   ar
    13     6     7   ar
    14     6    11    1
    15     7     8    1
    16    11    12    2
    17    11     9    1
    18     8     9    1
    19     9    10    2
    20    10    13    1
    21    19    13   ar
    22    19    17   ar
    23    13    14   ar
    24    17    16   ar
    25    14    15   ar
    26    16    15   ar
    27    16    18    1
