@<TRIPOS>MOLECULE
ZINC08444068_replica-1.pdb
 36 40 0 0 0
SMALL
GASTEIGER

@<TRIPOS>ATOM
      1  C10        6.6160   34.5330   59.2600 C.3     0  <0>0        0.1215
      2  C11        8.0040   34.3970   59.8390 C.2     0  <0>0        0.0437
      3  C12        8.9100   35.3770   59.9650 C.2     0  <0>0        0.0262
      4  C13       10.2880   35.0860   60.5350 C.3     0  <0>0        0.0458
      5  C14       10.1930   33.9820   61.5870 C.3     0  <0>0        0.0356
      6  C15        9.6270   32.7320   60.9020 C.3     0  <0>0        0.0736
      7  C16        8.3100   33.0840   60.2770 C.2     0  <0>0        0.1722
      8  O2         7.4760   32.2110   60.1410 O.2     0  <0>0       -0.2916
      9  N1         8.7090   36.6690   59.6000 N.pl3   0  <0>0       -0.3150
     10  C24        8.1560   37.0740   58.3900 C.ar    0  <0>0        0.0614
     11  C25        8.8600   37.8440   57.4790 C.ar    0  <0>0        0.0158
     12  C26        8.2170   38.3050   56.3420 C.ar    0  <0>0        0.0014
     13  C27        6.8870   37.9990   56.1190 C.ar    0  <0>0        0.0013
     14  C28        6.1900   37.2120   57.0190 C.ar    0  <0>0        0.0156
     15  C29        6.8340   36.7340   58.1490 C.ar    0  <0>0        0.0586
     16  N2         6.1870   35.9020   59.0600 N.pl3   0  <0>0       -0.3261
     17  H25        8.9690   37.3600   60.2290 H       0  <0>0        0.1520
     18  H30        5.4350   36.2450   59.5690 H       0  <0>0        0.1474
     19  C9         6.5790   33.8220   57.9320 C.ar    0  <0>0        0.0337
     20  C4         5.3700   33.3830   57.4130 C.ar    0  <0>0        0.1364
     21  C5         5.3400   32.7280   56.1900 C.ar    0  <0>0        0.0366
     22  C6         6.5150   32.5100   55.4950 C.ar    0  <0>0        0.0031
     23  C7         7.7180   32.9530   56.0130 C.ar    0  <0>0       -0.0001
     24  C8         7.7500   33.6070   57.2310 C.ar    0  <0>0        0.0007
     25  O1         4.2170   33.5940   58.1000 O.3     0  <0>0       -0.4757
     26  C3         3.0580   33.9300   57.3360 C.3     0  <0>0        0.2054
     27  C2         2.9470   35.4510   57.2180 C.3     0  <0>0        0.0473
     28  C1         2.5700   36.0420   58.5770 C.3     0  <0>0        0.0040
     29  C17       11.5620   33.6870   62.1420 C.ar    0  <0>0       -0.0215
     30  C22       12.5930   34.5880   61.9530 C.ar    0  <0>0       -0.0011
     31  C21       13.8490   34.3190   62.4610 C.ar    0  <0>0        0.0366
     32  C20       14.0760   33.1430   63.1620 C.ar    0  <0>0        0.1387
     33  C19       13.0390   32.2410   63.3500 C.ar    0  <0>0        0.0366
     34  C18       11.7830   32.5160   62.8450 C.ar    0  <0>0       -0.0011
     35  O3        15.3100   32.8760   63.6620 O.3     0  <0>0       -0.4714
     36  C23       15.7850   33.7300   64.7060 C.3     0  <0>0        0.2525
@<TRIPOS>BOND
     1    22    23   ar
     2    22    21   ar
     3    23    24   ar
     4    13    12   ar
     5    13    14   ar
     6    21    20   ar
     7    12    11   ar
     8    14    15   ar
     9    27    26    1
    10    27    28    1
    11    24    19   ar
    12    26    25    1
    13    20    19   ar
    14    20    25    1
    15    11    10   ar
    16    19     1    1
    17    15    10   ar
    18    15    16    1
    19    10     9    1
    20    16     1    1
    21    16    18    1
    22     1     2    1
    23     9     3    1
    24     9    17    1
    25     2     3    2
    26     2     7    1
    27     3     4    1
    28     8     7    2
    29     7     6    1
    30     4     5    1
    31     6     5    1
    32     5    29    1
    33    30    29   ar
    34    30    31   ar
    35    29    34   ar
    36    31    32   ar
    37    34    33   ar
    38    32    33   ar
    39    32    35    1
    40    35    36    1
