@<TRIPOS>MOLECULE
ZINC40377917_replica-1.pdb
 16 16 0 0 0
SMALL
GASTEIGER

@<TRIPOS>ATOM
      1  C6        -0.9680   28.2250   53.3590 C.ar    0  <0>0       -0.0153
      2  C7        -0.1210   27.3000   53.9400 C.ar    0  <0>0       -0.0015
      3  C8         0.0930   26.0780   53.3310 C.ar    0  <0>0        0.0293
      4  C9        -0.5410   25.7810   52.1360 C.ar    0  <0>0        0.1406
      5  C10       -1.3880   26.7070   51.5540 C.ar    0  <0>0        0.0360
      6  C11       -1.6060   27.9270   52.1680 C.ar    0  <0>0        0.0328
      7 Br         -2.7690   29.1900   51.3770 Br      0  <0>0       -0.0493
      8  F1        -0.3310   24.5870   51.5390 F       0  <0>0       -0.2042
      9  C5        -1.2010   29.5560   54.0250 C.3     0  <0>0        0.0381
     10  C4        -0.9730   29.4190   55.5330 C.3     0  <0>0        0.1077
     11  C2        -2.2550   29.7910   56.2780 C.3     0  <0>0        0.0110
     12  C1        -3.0930   30.7350   55.4130 C.3     0  <0>0        0.0006
     13  C3        -3.0590   28.5230   56.5750 C.3     0  <0>0        0.0006
     14  C12        0.1420   30.3400   55.9580 C.2     0  <0>0        0.3646
     15  O1         0.6570   30.2070   57.0540 O.co2   0  <0>0       -0.2457
     16  O2         0.5270   31.2180   55.2060 O.co2   0  <0>0       -0.2457
@<TRIPOS>BOND
     1     7     6    1
     2     8     4    1
     3     5     4   ar
     4     5     6   ar
     5     4     3   ar
     6     6     1   ar
     7     3     2   ar
     8     1     2   ar
     9     1     9    1
    10     9    10    1
    11    16    14   ar
    12    12    11    1
    13    10    14    1
    14    10    11    1
    15    14    15   ar
    16    11    13    1
