@<TRIPOS>MOLECULE
ZINC49912760_replica-1.pdb
 21 22 0 0 0
SMALL
GASTEIGER

@<TRIPOS>ATOM
      1  C11        8.6880   36.8470   58.7260 C.2     0  <0>0        0.1204
      2  C12        8.7730   38.1750   58.4060 C.3     0  <0>0        0.1230
      3  S1         7.4560   38.3090   57.2080 S.3     0  <0>0       -0.0791
      4  C13        6.9460   36.7070   57.2380 C.2     0  <0>0        0.1349
      5  N1         7.7510   36.1470   58.1040 N.2     0  <0>0       -0.4035
      6  C8         9.6010   36.2220   59.7150 C.ar    0  <0>0        0.0263
      7  C7         9.9660   36.9170   60.8660 C.ar    0  <0>0        0.0019
      8  C6        10.8150   36.3300   61.7830 C.ar    0  <0>0       -0.0042
      9  C5        11.3030   35.0550   61.5600 C.ar    0  <0>0       -0.0228
     10  C10       10.9480   34.3630   60.4160 C.ar    0  <0>0       -0.0042
     11  C9        10.0950   34.9380   59.4950 C.ar    0  <0>0        0.0019
     12  C2        12.2300   34.4200   62.5650 C.3     0  <0>0        0.0189
     13  C1        13.6200   34.2590   61.9460 C.3     0  <0>0        0.0044
     14  C3        11.6860   33.0460   62.9630 C.3     0  <0>0        0.0044
     15  C4        12.3240   35.3090   63.8060 C.3     0  <0>0        0.0044
     16  C14        5.8320   36.0670   56.4500 C.3     0  <0>0        0.0772
     17  C15        6.4250   35.2410   55.3070 C.3     0  <0>0        0.1175
     18  C16        6.0800   33.7870   55.5050 C.2     0  <0>0        0.3175
     19  O1         4.9260   33.4520   55.6310 O.2     0  <0>0       -0.2501
     20  O2         7.0550   32.8650   55.5430 O.3     0  <0>0       -0.4444
     21  C17        7.7950   32.7530   56.7600 C.3     0  <0>0        0.2556
@<TRIPOS>BOND
     1    17    18    1
     2    17    16    1
     3    18    20    1
     4    18    19    2
     5    20    21    1
     6    16     4    1
     7     3     4    1
     8     3     2    1
     9     4     5    2
    10     5     1    2
    11     2     1    1
    12     1     6    1
    13    11     6   ar
    14    11    10   ar
    15     6     7   ar
    16    10     9   ar
    17     7     8   ar
    18     9     8   ar
    19     9    12    1
    20    13    12    1
    21    12    14    1
    22    12    15    1
