@<TRIPOS>MOLECULE
ZINC40055483_replica-1.pdb
 32 36 0 0 0
SMALL
GASTEIGER

@<TRIPOS>ATOM
      1  C8         9.8890   34.6750   60.4490 C.ar    0  <0>0        0.1029
      2  C9         9.1650   33.4310   60.7380 C.ar    0  <0>0        0.0417
      3  C10       10.0000   32.6720   61.5400 C.ar    0  <0>0        0.1020
      4  N1        11.1320   33.3740   61.7340 N.ar    0  <0>0       -0.2282
      5  N2        11.0510   34.5940   61.0560 N.ar    0  <0>0       -0.1651
      6  C17        7.8260   33.0650   60.2700 C.2     0  <0>0        0.0439
      7  C18        7.2850   31.8680   60.6250 C.2     0  <0>0        0.1841
      8  O2         7.8780   30.9300   61.4000 O.3     0  <0>0       -0.4502
      9  C19        6.0030   31.3870   60.2380 C.2     0  <0>0        0.2327
     10  C25        7.0810   29.8520   61.5710 C.ar    0  <0>0        0.1483
     11  C20        5.8840   30.0590   60.8690 C.ar    0  <0>0        0.0774
     12  C24        7.2560   28.6670   62.2760 C.ar    0  <0>0        0.0342
     13  C21        4.8850   29.0870   60.8790 C.ar    0  <0>0        0.0174
     14  C22        5.0790   27.9170   61.5840 C.ar    0  <0>0        0.0540
     15  C23        6.2620   27.7110   62.2790 C.ar    0  <0>0       -0.0082
     16 Cl          3.8410   26.7010   61.6020 Cl      0  <0>0       -0.0826
     17  C26        6.4630   26.4290   63.0460 C.3     0  <0>0        0.0320
     18  O1         5.1810   31.9500   59.5360 O.2     0  <0>0       -0.2832
     19  C5         9.4020   35.8070   59.6250 C.ar    0  <0>0        0.0216
     20  C4         9.2080   37.0610   60.2030 C.ar    0  <0>0        0.0014
     21  C3         8.7550   38.1110   59.4330 C.ar    0  <0>0       -0.0020
     22  C2         8.4950   37.9250   58.0870 C.ar    0  <0>0        0.0056
     23  C1         8.0000   39.0770   57.2510 C.3     0  <0>0        0.0334
     24  C7         8.6800   36.6800   57.5070 C.ar    0  <0>0        0.1362
     25  C6         9.1380   35.6220   58.2700 C.ar    0  <0>0        0.0309
     26  F1         8.4180   36.5020   56.1940 F       0  <0>0       -0.2045
     27  C11       12.2270   32.9450   62.4930 C.ar    0  <0>0        0.0828
     28  C16       13.3160   33.7840   62.6800 C.ar    0  <0>0        0.0191
     29  C15       14.3920   33.3600   63.4360 C.ar    0  <0>0        0.0015
     30  C14       14.3900   32.0950   63.9960 C.ar    0  <0>0        0.0001
     31  C13       13.3090   31.2540   63.8060 C.ar    0  <0>0        0.0015
     32  C12       12.2280   31.6750   63.0570 C.ar    0  <0>0        0.0191
@<TRIPOS>BOND
     1    26    24    1
     2    23    22    1
     3    24    22   ar
     4    24    25   ar
     5    22    21   ar
     6    25    19   ar
     7    21    20   ar
     8    18     9    2
     9    19    20   ar
    10    19     1    1
    11     9     7    1
    12     9    11    1
    13     6     7    2
    14     6     2    1
    15     1     2   ar
    16     1     5   ar
    17     7     8    1
    18     2     3   ar
    19    11    13   ar
    20    11    10   ar
    21    13    14   ar
    22     5     4   ar
    23     8    10    1
    24     3     4   ar
    25    10    12   ar
    26    14    16    1
    27    14    15   ar
    28     4    27    1
    29    12    15   ar
    30    15    17    1
    31    27    28   ar
    32    27    32   ar
    33    28    29   ar
    34    32    31   ar
    35    29    30   ar
    36    31    30   ar
