@<TRIPOS>MOLECULE
ZINC04955936_replica-1.pdb
 23 25 0 0 0
SMALL
GASTEIGER

@<TRIPOS>ATOM
      1  C5         0.0770   31.5520   57.0110 C.2     0  <0>0        0.0235
      2  C6         0.2700   30.2500   57.0160 C.2     0  <0>0        0.0002
      3  C7        -1.0330   29.6190   56.5710 C.3     0  <0>0        0.1259
      4  C8        -1.9400   30.8060   56.3240 C.2     0  <0>0        0.2365
      5  O1        -3.0930   30.7830   55.9480 O.2     0  <0>0       -0.2738
      6  N1        -1.2000   31.8960   56.6100 N.am    0  <0>0       -0.2869
      7  H11       -1.5230   32.8080   56.5420 H       0  <0>0        0.1546
      8  C9        -1.5970   28.7370   57.6560 C.ar    0  <0>0       -0.0070
      9  C14       -1.1320   28.8550   58.9530 C.ar    0  <0>0       -0.0032
     10  C13       -1.6490   28.0470   59.9480 C.ar    0  <0>0       -0.0003
     11  C12       -2.6300   27.1210   59.6470 C.ar    0  <0>0       -0.0000
     12  C11       -3.0940   27.0030   58.3500 C.ar    0  <0>0       -0.0003
     13  C10       -2.5810   27.8140   57.3560 C.ar    0  <0>0       -0.0032
     14  C15       -0.8330   28.8310   55.3010 C.ar    0  <0>0       -0.0070
     15  C20       -1.4710   29.2220   54.1380 C.ar    0  <0>0       -0.0032
     16  C19       -1.2870   28.5010   52.9740 C.ar    0  <0>0       -0.0003
     17  C18       -0.4660   27.3890   52.9720 C.ar    0  <0>0       -0.0000
     18  C17        0.1720   26.9980   54.1350 C.ar    0  <0>0       -0.0003
     19  C16       -0.0070   27.7230   55.2980 C.ar    0  <0>0       -0.0032
     20  C2         1.1340   32.5570   57.3940 C.3     0  <0>0        0.0311
     21  C1         0.4670   33.8860   57.7540 C.3     0  <0>0        0.0056
     22  C3         2.0880   32.7680   56.2170 C.3     0  <0>0        0.0056
     23  C4         1.9190   32.0370   58.6000 C.3     0  <0>0        0.0056
@<TRIPOS>BOND
     1    17    16   ar
     2    17    18   ar
     3    16    15   ar
     4    18    19   ar
     5    15    14   ar
     6    19    14   ar
     7    14     3    1
     8     5     4    2
     9    22    20    1
    10     4     3    1
    11     4     6   am
    12     7     6    1
    13     3     2    1
    14     3     8    1
    15     6     1    1
    16     1     2    2
    17     1    20    1
    18    13     8   ar
    19    13    12   ar
    20    20    21    1
    21    20    23    1
    22     8     9   ar
    23    12    11   ar
    24     9    10   ar
    25    11    10   ar
