@<TRIPOS>MOLECULE
ZINC10345902_replica-1.pdb
 28 30 0 0 0
SMALL
GASTEIGER

@<TRIPOS>ATOM
      1  C9        -0.3890   29.9400   55.8580 C.ar    0  <0>0        0.1865
      2  N2         0.4150   30.6820   55.1190 N.ar    0  <0>0       -0.1249
      3  N3         1.1610   31.6760   55.7080 N.ar    0  <0>0       -0.1331
      4  C10        1.0780   31.8770   57.0090 C.ar    0  <0>0        0.1611
      5  S1        -0.1090   30.6290   57.4820 S.2     0  <0>0       -0.0242
      6  S2         1.9140   33.0600   58.0120 S.3     0  <0>0       -0.0768
      7  C11        1.4120   34.6580   57.3160 C.3     0  <0>0        0.1489
      8  C12        2.5030   35.1810   56.4180 C.2     0  <0>0        0.2341
      9  O1         2.9020   36.3190   56.5490 O.2     0  <0>0       -0.2741
     10  N4         3.0340   34.3860   55.4680 N.am    0  <0>0       -0.2993
     11  H12        2.7140   33.4770   55.3630 H       0  <0>0        0.1498
     12  C13        4.0940   34.8960   54.5950 C.3     0  <0>0        0.1229
     13  C14        5.4340   34.6670   55.2480 C.ar    0  <0>0        0.0270
     14  S3         6.0210   33.2320   56.1340 S.2     0  <0>0       -0.0891
     15  C17        7.6540   33.8340   56.5310 C.ar    0  <0>0        0.0352
     16  C16        7.6430   35.0680   55.9720 C.ar    0  <0>0        0.0072
     17  C15        6.5060   35.4930   55.3080 C.ar    0  <0>0        0.0044
     18  N1        -1.2260   28.8980   55.4750 N.pl3   0  <0>0       -0.2918
     19  H9        -1.9010   28.5680   56.0880 H       0  <0>0        0.1541
     20  C8        -1.0930   28.3250   54.2080 C.ar    0  <0>0        0.0417
     21  C3        -0.2820   27.2120   54.0290 C.ar    0  <0>0       -0.0090
     22  C4        -0.1480   26.6510   52.7730 C.ar    0  <0>0       -0.0031
     23  C5        -0.8310   27.1900   51.6980 C.ar    0  <0>0       -0.0006
     24  C6        -1.6390   28.2990   51.8730 C.ar    0  <0>0       -0.0031
     25  C7        -1.7720   28.8670   53.1240 C.ar    0  <0>0       -0.0087
     26  C18       -2.6540   30.0750   53.3120 C.3     0  <0>0        0.0323
     27  C2         0.4570   26.6200   55.2010 C.3     0  <0>0        0.0276
     28  C1         0.5770   25.1060   55.0170 C.3     0  <0>0        0.0051
@<TRIPOS>BOND
     1    23    24   ar
     2    23    22   ar
     3    24    25   ar
     4    22    21   ar
     5    25    26    1
     6    25    20   ar
     7    21    20   ar
     8    21    27    1
     9    20    18    1
    10    12    13    1
    11    12    10    1
    12    28    27    1
    13     2     3   ar
    14     2     1   ar
    15    13    17   ar
    16    13    14   ar
    17    17    16   ar
    18    11    10    1
    19    10     8   am
    20    18     1    1
    21    18    19    1
    22     3     4   ar
    23     1     5   ar
    24    16    15   ar
    25    14    15   ar
    26     8     9    2
    27     8     7    1
    28     4     5   ar
    29     4     6    1
    30     7     6    1
