@<TRIPOS>MOLECULE
ZINC35521351_replica-1.pdb
 31 33 0 0 0
SMALL
GASTEIGER

@<TRIPOS>ATOM
      1  C11       -0.3980   29.2170   54.7790 C.ar    0  <0>0        0.1146
      2  C12       -1.1210   29.4170   53.6430 C.ar    0  <0>0        0.0238
      3  C13       -1.1010   28.2090   52.8840 C.ar    0  <0>0        0.0242
      4  C14       -1.6190   27.6790   51.6290 C.ar    0  <0>0        0.0090
      5  C15       -1.3370   26.4140   51.2910 C.ar    0  <0>0        0.0369
      6  S1        -0.3440   25.8350   52.6540 S.2     0  <0>0       -0.0692
      7  C16       -0.3360   27.3120   53.6370 C.ar    0  <0>0        0.0907
      8  N3         0.0880   27.9210   54.7690 N.ar    0  <0>0       -0.3144
      9  C10       -0.1680   30.2090   55.8320 C.2     0  <0>0        0.2617
     10  N2         0.9750   30.9220   55.8460 N.am    0  <0>0       -0.3013
     11  H21        1.6120   30.8330   55.1200 H       0  <0>0        0.1497
     12  O1        -1.0090   30.3880   56.6940 O.2     0  <0>0       -0.2686
     13  C8         1.2550   31.8350   56.9580 C.3     0  <0>0        0.0719
     14  C9         2.7670   31.9350   57.1670 C.3     0  <0>0        0.0213
     15  C7         0.6920   33.2210   56.6340 C.3     0  <0>0        0.0174
     16  C6         0.0780   33.8290   57.8970 C.3     0  <0>0       -0.0211
     17  C5         0.8030   35.1320   58.2380 C.3     0  <0>0       -0.0773
     18  N1         1.4280   35.0110   59.5630 N.4     0  <0>0        0.3869
     19  H34        1.3150   35.8760   60.0690 H       0  <0>0       -0.0797
     20  C2         0.7870   33.9190   60.3090 C.3     0  <0>0       -0.0774
     21  C1         1.8620   33.0270   60.9320 C.3     0  <0>0       -0.0250
     22  C3         2.8590   34.7210   59.4040 C.3     0  <0>0       -0.0774
     23  C4         3.5100   35.8150   58.5560 C.3     0  <0>0       -0.0250
     24  C17        0.9190   27.3090   55.8110 C.3     0  <0>0        0.1333
     25  C18        0.0660   26.4150   56.6720 C.ar    0  <0>0        0.0001
     26  C23        0.2960   25.0520   56.6940 C.ar    0  <0>0       -0.0066
     27  C22       -0.4840   24.2320   57.4880 C.ar    0  <0>0       -0.0221
     28  C21       -1.4980   24.7730   58.2540 C.ar    0  <0>0       -0.0043
     29  C24       -0.2290   22.7470   57.5160 C.3     0  <0>0        0.0310
     30  C20       -1.7320   26.1360   58.2290 C.ar    0  <0>0       -0.0006
     31  C19       -0.9500   26.9570   57.4380 C.ar    0  <0>0       -0.0024
@<TRIPOS>BOND
     1     5     4   ar
     2     5     6   ar
     3     4     3   ar
     4     6     7   ar
     5     3     7   ar
     6     3     2   ar
     7     7     8   ar
     8     2     1   ar
     9     8     1   ar
    10     8    24    1
    11     1     9    1
    12    11    10    1
    13    24    25    1
    14     9    10   am
    15     9    12    2
    16    10    13    1
    17    15    13    1
    18    15    16    1
    19    25    26   ar
    20    25    31   ar
    21    26    27   ar
    22    13    14    1
    23    31    30   ar
    24    27    29    1
    25    27    28   ar
    26    16    17    1
    27    30    28   ar
    28    17    18    1
    29    23    22    1
    30    22    18    1
    31    18    19    1
    32    18    20    1
    33    20    21    1
