@<TRIPOS>MOLECULE
ZINC20891774_replica-1.pdb
 27 30 0 0 0
SMALL
GASTEIGER

@<TRIPOS>ATOM
      1  C8         8.4110   35.6500   58.1630 C.3     0  <0>0        0.0963
      2  C9         7.0810   35.1040   58.5790 C.ar    0  <0>0        0.0386
      3  C10        6.9310   34.2930   59.7250 C.ar    0  <0>0        0.0792
      4  N1         5.6770   33.9640   59.8450 N.ar    0  <0>0       -0.1686
      5  N2         4.9710   34.5440   58.7910 N.ar    0  <0>0       -0.2165
      6  C11        5.8620   35.2500   58.0140 C.ar    0  <0>0        0.1338
      7  N3         5.4460   35.9270   56.8940 N.am    0  <0>0       -0.2688
      8  C12        6.0240   36.6900   56.0150 C.2     0  <0>0        0.2382
      9  O1         5.2730   37.1950   55.2060 O.2     0  <0>0       -0.2738
     10  C13        7.4490   37.0420   55.8450 C.3     0  <0>0        0.1433
     11  S1         8.3060   37.2760   57.4080 S.3     0  <0>0       -0.1223
     12  C20        8.0400   33.8760   60.6550 C.3     0  <0>0        0.0537
     13  H9         4.3940   35.8750   56.5790 H       0  <0>0        0.1563
     14  C5         9.2990   35.7370   59.3780 C.ar    0  <0>0       -0.0083
     15  C4        10.3030   34.8050   59.5680 C.ar    0  <0>0       -0.0034
     16  C3        11.1150   34.8820   60.6840 C.ar    0  <0>0       -0.0045
     17  C2        10.9300   35.8970   61.6050 C.ar    0  <0>0       -0.0219
     18  C1        11.8200   35.9860   62.8170 C.3     0  <0>0        0.0310
     19  C7         9.9300   36.8320   61.4100 C.ar    0  <0>0       -0.0045
     20  C6         9.1140   36.7520   60.2970 C.ar    0  <0>0       -0.0034
     21  C14        3.5920   34.4280   58.5630 C.ar    0  <0>0        0.0843
     22  C19        3.0850   33.3020   57.9280 C.ar    0  <0>0        0.0215
     23  C18        1.7270   33.1900   57.7040 C.ar    0  <0>0        0.0312
     24  C17        0.8710   34.2000   58.1120 C.ar    0  <0>0        0.1402
     25  C16        1.3750   35.3230   58.7460 C.ar    0  <0>0        0.0312
     26  F1        -0.4570   34.0880   57.8920 F       0  <0>0       -0.2042
     27  C15        2.7320   35.4370   58.9770 C.ar    0  <0>0        0.0215
@<TRIPOS>BOND
     1     9     8    2
     2    10     8    1
     3    10    11    1
     4     8     7   am
     5    13     7    1
     6     7     6    1
     7    11     1    1
     8    23    22   ar
     9    23    24   ar
    10    26    24    1
    11    22    21   ar
    12     6     2   ar
    13     6     5   ar
    14    24    25   ar
    15     1     2    1
    16     1    14    1
    17    21     5    1
    18    21    27   ar
    19     2     3   ar
    20    25    27   ar
    21     5     4   ar
    22    14    15   ar
    23    14    20   ar
    24    15    16   ar
    25     3     4   ar
    26     3    12    1
    27    20    19   ar
    28    16    17   ar
    29    19    17   ar
    30    17    18    1
