@<TRIPOS>MOLECULE
ZINC04364382_replica-1.pdb
 30 31 0 0 0
SMALL
GASTEIGER

@<TRIPOS>ATOM
      1  C5         6.2440   34.1650   60.1490 C.2     0  <0>0        0.2408
      2  O1         5.5320   34.8760   60.8270 O.2     0  <0>0       -0.2733
      3  N1         7.4650   34.5950   59.7760 N.am    0  <0>0       -0.2973
      4  H9         8.0060   34.0570   59.1770 H       0  <0>0        0.1500
      5  C4         5.7610   32.8020   59.7240 C.3     0  <0>0        0.1510
      6  C2         4.9920   32.1520   60.8740 C.3     0  <0>0        0.0270
      7  C1         3.9060   31.2350   60.3070 C.3     0  <0>0        0.0022
      8  C3         5.9550   31.3310   61.7330 C.3     0  <0>0        0.0022
      9  N2         4.8790   32.9370   58.5610 N.am    0  <0>0       -0.2640
     10  C19        5.4020   32.9630   57.3190 C.2     0  <0>0        0.4017
     11  O2         6.6030   32.8670   57.1630 O.2     0  <0>0       -0.2264
     12  H21        3.9210   33.0130   58.6860 H       0  <0>0        0.1532
     13  O3         4.5930   33.0920   56.2510 O.3     0  <0>0       -0.4419
     14  C20        4.2650   34.4440   55.8320 C.3     0  <0>0        0.1378
     15  C21        2.8070   34.7470   56.1840 C.3     0  <0>0        0.0437
     16  C22        5.1800   35.4370   56.5500 C.3     0  <0>0        0.0437
     17  C23        4.4610   34.5710   54.3200 C.3     0  <0>0        0.0437
     18  C6         7.9770   35.8720   60.2770 C.3     0  <0>0        0.1169
     19  C7         9.3300   35.6600   60.9060 C.ar    0  <0>0       -0.0003
     20  C12        9.9230   36.6770   61.6300 C.ar    0  <0>0       -0.0024
     21  C11       11.1630   36.4820   62.2080 C.ar    0  <0>0       -0.0003
     22  C10       11.8130   35.2710   62.0600 C.ar    0  <0>0       -0.0000
     23  C9        11.2190   34.2540   61.3350 C.ar    0  <0>0       -0.0003
     24  C8         9.9770   34.4470   60.7630 C.ar    0  <0>0       -0.0024
     25  C13        8.1020   36.8470   59.1340 C.ar    0  <0>0       -0.0003
     26  C18        7.7350   38.1680   59.3080 C.ar    0  <0>0       -0.0024
     27  C17        7.8490   39.0610   58.2590 C.ar    0  <0>0       -0.0003
     28  C16        8.3310   38.6340   57.0370 C.ar    0  <0>0       -0.0000
     29  C15        8.6990   37.3130   56.8620 C.ar    0  <0>0       -0.0003
     30  C14        8.5890   36.4210   57.9120 C.ar    0  <0>0       -0.0024
@<TRIPOS>BOND
     1    17    14    1
     2    14    15    1
     3    14    13    1
     4    14    16    1
     5    13    10    1
     6    29    28   ar
     7    29    30   ar
     8    28    27   ar
     9    11    10    2
    10    10     9   am
    11    30    25   ar
    12    27    26   ar
    13     9    12    1
    14     9     5    1
    15    25    26   ar
    16    25    18    1
    17     4     3    1
    18     5     1    1
    19     5     6    1
    20     3     1   am
    21     3    18    1
    22     1     2    2
    23    18    19    1
    24     7     6    1
    25    24    19   ar
    26    24    23   ar
    27     6     8    1
    28    19    20   ar
    29    23    22   ar
    30    20    21   ar
    31    22    21   ar
