@<TRIPOS>MOLECULE
ZINC40485965_replica-1.pdb
 28 31 0 0 0
SMALL
GASTEIGER

@<TRIPOS>ATOM
      1  C8         8.5060   36.4420   57.9010 C.2     0  <0>0        0.0382
      2  C9         8.3340   37.6110   57.2450 C.2     0  <0>0        0.1856
      3  C10        7.4710   37.3960   56.0820 C.2     0  <0>0        0.2834
      4  O1         7.1350   38.2610   55.2950 O.2     0  <0>0       -0.2666
      5  N1         7.1060   36.1040   56.0080 N.am    0  <0>0       -0.2604
      6  C11        7.7270   35.3980   57.1360 C.3     0  <0>0        0.1243
      7  C5         9.3020   36.2270   59.1190 C.ar    0  <0>0        0.0009
      8  C4        10.0720   35.0670   59.2610 C.ar    0  <0>0       -0.0005
      9  C3        10.8150   34.8730   60.4050 C.ar    0  <0>0       -0.0043
     10  C2        10.8020   35.8210   61.4130 C.ar    0  <0>0       -0.0218
     11  C1        11.6180   35.6000   62.6610 C.3     0  <0>0        0.0310
     12  C7        10.0380   36.9680   61.2830 C.ar    0  <0>0       -0.0043
     13  C6         9.2930   37.1800   60.1420 C.ar    0  <0>0       -0.0005
     14  C12        6.6620   34.7940   58.0160 C.ar    0  <0>0        0.0001
     15  C17        5.8490   35.6140   58.7760 C.ar    0  <0>0       -0.0018
     16  C16        4.8690   35.0620   59.5790 C.ar    0  <0>0        0.0064
     17  C15        4.7090   33.6880   59.6300 C.ar    0  <0>0        0.0345
     18  C14        5.5260   32.8690   58.8730 C.ar    0  <0>0        0.0064
     19 Br          3.3730   32.9320   60.7340 Br      0  <0>0       -0.0490
     20  C13        6.5020   33.4220   58.0660 C.ar    0  <0>0       -0.0018
     21  O3         8.8770   38.8030   57.6110 O.2     0  <0>0       -0.5020
     22  H18        9.1460   38.8450   58.5390 H       0  <0>0        0.2924
     23  C18        6.2460   35.5060   54.9830 C.3     0  <0>0        0.1590
     24  C19        4.8330   35.4200   55.5010 C.ar    0  <0>0        0.1431
     25  O2         4.1470   34.2870   55.7240 O.2     0  <0>0       -0.4530
     26  C22        2.9240   34.5900   56.1870 C.ar    0  <0>0        0.1792
     27  C21        2.8140   35.9290   56.2570 C.ar    0  <0>0        0.0435
     28  C20        4.0450   36.4640   55.8150 C.ar    0  <0>0        0.0379
@<TRIPOS>BOND
     1    23    24    1
     2    23     5    1
     3     4     3    2
     4    24    25   ar
     5    24    28   ar
     6    25    26   ar
     7    28    27   ar
     8     5     3   am
     9     5     6    1
    10     3     2    1
    11    26    27   ar
    12     6     1    1
    13     6    14    1
    14     2    21    1
    15     2     1    2
    16    21    22    1
    17     1     7    1
    18    14    20   ar
    19    14    15   ar
    20    20    18   ar
    21    15    16   ar
    22    18    17   ar
    23     7     8   ar
    24     7    13   ar
    25     8     9   ar
    26    16    17   ar
    27    17    19    1
    28    13    12   ar
    29     9    10   ar
    30    12    10   ar
    31    10    11    1
