@<TRIPOS>MOLECULE
ZINC44201344_replica-1.pdb
 19 20 0 0 0
SMALL
GASTEIGER

@<TRIPOS>ATOM
      1  C1         9.5530   36.9300   60.2190 C.ar    0  <0>0        0.0406
      2  C2        10.2590   36.3500   61.2740 C.ar    0  <0>0        0.0406
      3  C3        10.6140   35.0800   60.8710 C.ar    0  <0>0        0.1461
      4  O1        10.1520   34.8820   59.6250 O.2     0  <0>0       -0.4535
      5  C4         9.5030   35.9890   59.2050 C.ar    0  <0>0        0.1456
      6  C8        11.3750   34.1050   61.6740 C.ar    0  <0>0        0.0460
      7  C13       10.8130   32.8630   61.9850 C.ar    0  <0>0        0.0615
      8  C12       11.5320   31.9500   62.7320 C.ar    0  <0>0        0.0237
      9 Cl          9.2190   32.4640   61.4280 Cl      0  <0>0       -0.0821
     10  C11       12.8030   32.2690   63.1820 C.ar    0  <0>0        0.0690
     11  C10       13.3630   33.5020   62.8820 C.ar    0  <0>0        0.0683
     12 Cl         13.6970   31.1200   64.1280 Cl      0  <0>0       -0.0813
     13  C9        12.6570   34.4190   62.1320 C.ar    0  <0>0        0.0161
     14 Cl         14.9560   33.8900   63.4510 Cl      0  <0>0       -0.0814
     15  C5         8.8830   36.1580   57.9500 C.2     0  <0>0        0.0443
     16  C6         8.5360   37.4060   57.5230 C.2     0  <0>0        0.0893
     17  C7         7.9180   37.5740   56.2710 C.2     0  <0>0        0.3881
     18  O2         7.9820   36.6030   55.3610 O.co2   0  <0>0       -0.2405
     19  O3         7.2680   38.7050   55.9960 O.co2   0  <0>0       -0.2405
@<TRIPOS>BOND
     1    18    17   ar
     2    19    17   ar
     3    17    16    1
     4    16    15    2
     5    15     5    1
     6     5     4   ar
     7     5     1   ar
     8     4     3   ar
     9     1     2   ar
    10     3     2   ar
    11     3     6    1
    12     9     7    1
    13     6     7   ar
    14     6    13   ar
    15     7     8   ar
    16    13    11   ar
    17     8    10   ar
    18    11    10   ar
    19    11    14    1
    20    10    12    1
