@<TRIPOS>MOLECULE
ZINC59403567_replica-1.pdb
 25 25 0 0 0
SMALL
GASTEIGER

@<TRIPOS>ATOM
      1  C9        -0.2170   32.7790   56.4690 C.3     0  <0>0        0.1093
      2  C4         1.1600   33.1650   57.0120 C.3     0  <0>0        0.0943
      3  N1         1.9570   33.7640   55.9390 N.am    0  <0>0       -0.2706
      4  C3         3.2590   33.4430   55.8070 C.2     0  <0>0        0.4016
      5  O2         3.7720   32.6560   56.5790 O.2     0  <0>0       -0.2264
      6  H7         1.5480   34.3930   55.3230 H       0  <0>0        0.1527
      7  O1         3.9920   33.9940   54.8210 O.3     0  <0>0       -0.4347
      8  C2         4.0310   35.4210   54.7610 C.3     0  <0>0        0.2102
      9  C1         4.6750   35.9680   56.0370 C.3     0  <0>0        0.0513
     10  C5         0.9940   34.1770   58.1480 C.3     0  <0>0        0.0214
     11  C6         1.6030   33.6070   59.4310 C.3     0  <0>0        0.0017
     12  C7         2.9660   34.2560   59.6790 C.3     0  <0>0        0.0001
     13  C8         0.6760   33.9010   60.6120 C.3     0  <0>0        0.0001
     14  N2        -0.0880   31.6070   55.5980 N.am    0  <0>0       -0.2992
     15  C10       -1.0580   30.6720   55.5780 C.2     0  <0>0        0.2467
     16  O3        -2.0400   30.8000   56.2830 O.2     0  <0>0       -0.2701
     17  H19        0.6960   31.5060   55.0370 H       0  <0>0        0.1498
     18  C11       -0.9270   29.4910   54.7000 C.ar    0  <0>0        0.0639
     19  C16       -0.2520   28.3530   55.1510 C.ar    0  <0>0        0.0625
     20  C15       -0.1390   27.2500   54.3280 C.ar    0  <0>0        0.0182
     21 Cl          0.4340   28.3230   56.7460 Cl      0  <0>0       -0.0821
     22  C14       -0.6810   27.2760   53.0550 C.ar    0  <0>0        0.0354
     23  C13       -1.3460   28.4030   52.6010 C.ar    0  <0>0        0.0069
     24 Br         -0.5150   25.7650   51.9300 Br      0  <0>0       -0.0490
     25  C12       -1.4710   29.5090   53.4150 C.ar    0  <0>0        0.0059
@<TRIPOS>BOND
     1    24    22    1
     2    23    22   ar
     3    23    25   ar
     4    22    20   ar
     5    25    18   ar
     6    20    19   ar
     7    18    19   ar
     8    18    15    1
     9     8     7    1
    10     8     9    1
    11     7     4    1
    12    17    14    1
    13    19    21    1
    14     6     3    1
    15    15    14   am
    16    15    16    2
    17    14     1    1
    18     4     3   am
    19     4     5    2
    20     3     2    1
    21     1     2    1
    22     2    10    1
    23    10    11    1
    24    11    12    1
    25    11    13    1
