@<TRIPOS>MOLECULE
ZINC44271780_replica-1.pdb
 21 22 0 0 0
SMALL
GASTEIGER

@<TRIPOS>ATOM
      1  N1        12.2650   34.4840   61.2770 N.pl3   0  <0>0       -0.3090
      2  H12       12.6980   34.8030   60.4690 H       0  <0>0        0.1491
      3  C4        10.8740   34.8510   61.5560 C.3     0  <0>0        0.0994
      4  C2        10.7730   36.3670   61.7400 C.3     0  <0>0        0.0227
      5  C1         9.3040   36.7670   61.8860 C.3     0  <0>0        0.0021
      6  C3        11.5410   36.7790   62.9980 C.3     0  <0>0        0.0021
      7  C5        10.0010   34.4260   60.4030 C.ar    0  <0>0        0.0250
      8  S1         8.8510   33.0640   60.3070 S.2     0  <0>0       -0.0892
      9  C8         8.2940   33.3240   58.6310 C.ar    0  <0>0        0.0352
     10  C7         9.0160   34.4090   58.2600 C.ar    0  <0>0        0.0072
     11  C6         9.8920   34.9740   59.1690 C.ar    0  <0>0        0.0043
     12  C9        12.9640   33.6790   62.1680 C.2     0  <0>0        0.1613
     13  N2        12.4260   32.5450   62.5880 N.2     0  <0>0       -0.3873
     14  C13       13.0590   31.7490   63.4310 C.2     0  <0>0        0.2035
     15  C12       14.3070   32.0810   63.9150 C.2     0  <0>0        0.0320
     16  C11       14.9040   33.2650   63.5040 C.2     0  <0>0       -0.0147
     17  C10       14.2200   34.0760   62.6170 C.3     0  <0>0        0.1006
     18  C14       12.4060   30.4650   63.8720 C.3     0  <0>0        0.4463
     19  F1        12.9310   29.3980   63.1350 F       0  <0>0       -0.1635
     20  F2        12.6540   30.2590   65.2330 F       0  <0>0       -0.1635
     21  F3        11.0250   30.5450   63.6580 F       0  <0>0       -0.1635
@<TRIPOS>BOND
     1    10     9   ar
     2    10    11   ar
     3     9     8   ar
     4    11     7   ar
     5     8     7   ar
     6     7     3    1
     7     2     1    1
     8     1     3    1
     9     1    12    1
    10     3     4    1
    11     4     5    1
    12     4     6    1
    13    12    13    2
    14    12    17    1
    15    13    14    2
    16    17    16    1
    17    19    18    1
    18    14    18    1
    19    14    15    1
    20    16    15    2
    21    21    18    1
    22    18    20    1
