@<TRIPOS>MOLECULE
ZINC64567242_replica-1.pdb
 29 31 0 0 0
SMALL
GASTEIGER

@<TRIPOS>ATOM
      1  C10       -1.7780   29.7790   56.9390 C.2     0  <0>0        0.1265
      2  C11       -2.4340   28.5840   57.1650 C.3     0  <0>0        0.1910
      3  C12       -1.9010   27.6990   58.1010 C.1     0  <0>0        0.1980
      4  O2        -2.5120   26.5160   58.3540 O.2     0  <0>0       -0.2130
      5  N2        -0.7870   28.0320   58.7410 N.2     0  <0>0       -0.2640
      6  C13       -0.1870   29.1870   58.4960 C.1     0  <0>0        0.1787
      7  N3        -0.6670   30.0460   57.6080 N.2     0  <0>0       -0.3415
      8  C9        -2.3170   30.7670   55.9360 C.3     0  <0>0        0.1414
      9  C8        -1.7210   30.4830   54.5810 C.2     0  <0>0        0.2296
     10  N1        -2.2130   29.4810   53.8250 N.am    0  <0>0       -0.3000
     11  H7        -2.9500   28.9420   54.1540 H       0  <0>0        0.1498
     12  O1        -0.7990   31.1560   54.1710 O.2     0  <0>0       -0.2746
     13  C7        -1.6320   29.2040   52.5080 C.3     0  <0>0        0.1186
     14  C5        -1.1660   27.7720   52.4560 C.ar    0  <0>0        0.0249
     15  C4        -1.4940   26.9770   51.3720 C.ar    0  <0>0        0.1377
     16  C3        -1.0640   25.6610   51.3250 C.ar    0  <0>0        0.0294
     17  F2        -2.2340   27.4830   50.3610 F       0  <0>0       -0.2044
     18  C2        -0.3070   25.1440   52.3590 C.ar    0  <0>0        0.0023
     19  C1         0.0200   25.9410   53.4420 C.ar    0  <0>0       -0.0001
     20  C6        -0.4080   27.2540   53.4890 C.ar    0  <0>0       -0.0004
     21  S1         1.2910   29.5900   59.3680 S.3     0  <0>0       -0.0127
     22  C14        0.7430   29.8100   61.0830 C.3     0  <0>0        0.1006
     23  C15        0.4190   31.2620   61.3250 C.ar    0  <0>0       -0.0101
     24  C20       -0.0850   31.6620   62.5480 C.ar    0  <0>0       -0.0011
     25  C19       -0.3780   32.9950   62.7730 C.ar    0  <0>0        0.0293
     26  C18       -0.1750   33.9250   61.7690 C.ar    0  <0>0        0.1401
     27  C17        0.3260   33.5230   60.5430 C.ar    0  <0>0        0.0293
     28  F1        -0.4650   35.2270   61.9860 F       0  <0>0       -0.2042
     29  C16        0.6220   32.1910   60.3220 C.ar    0  <0>0       -0.0011
@<TRIPOS>BOND
     1    17    15    1
     2    16    15   ar
     3    16    18   ar
     4    15    14   ar
     5    18    19   ar
     6    14    13    1
     7    14    20   ar
     8    13    10    1
     9    19    20   ar
    10    10    11    1
    11    10     9   am
    12    12     9    2
    13     9     8    1
    14     8     1    1
    15     1     2    1
    16     1     7    2
    17     2     3    1
    18     7     6    2
    19     3     4    2
    20     3     5    2
    21     6     5    2
    22     6    21    1
    23    21    22    1
    24    29    27   ar
    25    29    23   ar
    26    27    26   ar
    27    22    23    1
    28    23    24   ar
    29    26    28    1
    30    26    25   ar
    31    24    25   ar
