@<TRIPOS>MOLECULE
ZINC09762024_replica-1.pdb
 23 25 0 0 0
SMALL
GASTEIGER

@<TRIPOS>ATOM
      1  C8         0.5990   31.8410   56.0160 C.2     0  <0>0        0.1803
      2  N1         0.0660   32.0500   57.1770 N.2     0  <0>0       -0.1060
      3  S2         0.8790   32.8960   58.3490 S.O2    0  <0>0        0.1033
      4  O1         1.4620   31.9390   59.2220 O.2     0  <0>0       -0.1462
      5  O2        -0.0030   33.9140   58.8010 O.2     0  <0>0       -0.1462
      6  C9         2.2090   33.7070   57.5210 C.ar    0  <0>0        0.1448
      7  C10        2.9060   34.7240   58.1340 C.ar    0  <0>0        0.0513
      8  C11        3.9450   35.3510   57.4630 C.ar    0  <0>0        0.1416
      9  C12        4.2780   34.9510   56.1790 C.ar    0  <0>0        0.0310
     10  C13        3.5810   33.9300   55.5640 C.ar    0  <0>0        0.0183
     11  C14        2.5400   33.2990   56.2340 C.ar    0  <0>0        0.0692
     12  N2         1.8320   32.2650   55.6250 N.pl3   0  <0>0       -0.2907
     13  F1         4.6320   36.3490   58.0600 F       0  <0>0       -0.2041
     14  H10        2.2460   31.8180   54.8690 H       0  <0>0        0.1542
     15  S1        -0.3530   30.9350   54.8430 S.3     0  <0>0       -0.0737
     16  C7        -0.3670   29.3090   55.6370 C.3     0  <0>0        0.0911
     17  C6        -0.3910   28.2340   54.5810 C.ar    0  <0>0       -0.0108
     18  C1        -1.0570   28.4500   53.3900 C.ar    0  <0>0       -0.0025
     19  C2        -1.0810   27.4650   52.4210 C.ar    0  <0>0        0.0111
     20  C3        -0.4380   26.2600   52.6450 C.ar    0  <0>0        0.0577
     21  C4         0.2290   26.0440   53.8390 C.ar    0  <0>0        0.0111
     22 Cl         -0.4670   25.0210   51.4300 Cl      0  <0>0       -0.0822
     23  C5         0.2510   27.0300   54.8070 C.ar    0  <0>0       -0.0025
@<TRIPOS>BOND
     1    22    20    1
     2    19    20   ar
     3    19    18   ar
     4    20    21   ar
     5    18    17   ar
     6    21    23   ar
     7    17    23   ar
     8    17    16    1
     9    15    16    1
    10    15     1    1
    11    14    12    1
    12    10     9   ar
    13    10    11   ar
    14    12     1    1
    15    12    11    1
    16     1     2    2
    17     9     8   ar
    18    11     6   ar
    19     2     3    1
    20     8    13    1
    21     8     7   ar
    22     6     7   ar
    23     6     3    1
    24     3     5    2
    25     3     4    2
