@<TRIPOS>MOLECULE
ZINC04945284_replica-1.pdb
 24 25 0 0 0
SMALL
GASTEIGER

@<TRIPOS>ATOM
      1  C7         1.8320   32.6780   58.7760 C.3     0  <0>0        0.1132
      2  S1         1.5950   32.5630   56.9820 S.3     0  <0>0       -0.0630
      3  C6         3.1760   32.9660   56.3160 C.2     0  <0>0        0.2123
      4  N1         3.2570   33.7970   55.2400 N.am    0  <0>0       -0.2541
      5  C5         4.4650   34.1110   54.7260 C.2     0  <0>0        0.2351
      6  H1         2.4490   34.1630   54.8460 H       0  <0>0        0.1577
      7  C4         5.6160   33.5640   55.3200 C.3     0  <0>0        0.1397
      8  O1         4.5560   34.8540   53.7620 O.2     0  <0>0       -0.2742
      9  C3         5.4720   32.7370   56.3970 C.2     0  <0>0        0.0980
     10  N2         4.2600   32.4530   56.8660 N.2     0  <0>0       -0.3889
     11  C2         6.6900   32.1380   57.0530 C.3     0  <0>0        0.0550
     12  C1         7.9450   32.8440   56.5370 C.3     0  <0>0        0.0075
     13  C8         1.9240   34.1490   59.1860 C.3     0  <0>0        0.2175
     14  O2         3.0370   34.3310   60.0630 O.3     0  <0>0       -0.4745
     15  C9         4.1870   34.8010   59.5110 C.ar    0  <0>0        0.1388
     16  C14        5.4140   34.3700   59.9920 C.ar    0  <0>0        0.0400
     17  C13        6.5830   34.8440   59.4290 C.ar    0  <0>0        0.0400
     18  C12        6.5300   35.7570   58.3870 C.ar    0  <0>0        0.1386
     19  C11        5.3030   36.1930   57.9090 C.ar    0  <0>0        0.0400
     20  C10        4.1340   35.7160   58.4690 C.ar    0  <0>0        0.0400
     21  O3         7.6810   36.2270   57.8350 O.3     0  <0>0       -0.4792
     22  C15        7.5500   37.1310   56.7350 C.3     0  <0>0        0.1661
     23  C16        8.3990   38.3760   56.9960 C.3     0  <0>0        0.0472
     24  C17        8.0290   36.4460   55.4530 C.3     0  <0>0        0.0472
@<TRIPOS>BOND
     1     8     5    2
     2     5     4   am
     3     5     7    1
     4     6     4    1
     5     4     3    1
     6     7     9    1
     7    24    22    1
     8     3    10    2
     9     3     2    1
    10     9    10    2
    11     9    11    1
    12    12    11    1
    13    22    23    1
    14    22    21    1
    15     2     1    1
    16    21    18    1
    17    19    18   ar
    18    19    20   ar
    19    18    17   ar
    20    20    15   ar
    21     1    13    1
    22    13    14    1
    23    17    16   ar
    24    15    16   ar
    25    15    14    1
