@<TRIPOS>MOLECULE
ZINC00205900_replica-1.pdb
 25 28 0 0 0
SMALL
GASTEIGER

@<TRIPOS>ATOM
      1  C8         8.4040   35.5000   58.1520 C.3     0  <0>0        0.0965
      2  C9         6.9340   35.6990   58.5390 C.3     0  <0>0        0.0532
      3  C10        6.0460   35.5480   57.2980 C.3     0  <0>0        0.1351
      4  N1         6.4180   34.3190   56.5980 N.ar    0  <0>0       -0.2184
      5  C11        7.5940   33.6680   56.7690 C.ar    0  <0>0        0.2158
      6  N2         7.5910   32.6160   55.9970 N.ar    0  <0>0       -0.1903
      7  C12        6.4380   32.5620   55.3210 C.ar    0  <0>0        0.2220
      8  N3         5.6920   33.5840   55.6590 N.ar    0  <0>0       -0.1440
      9  N4         8.5780   34.1270   57.6380 N.pl3   0  <0>0       -0.3010
     10  H13        9.3340   33.5760   57.8940 H       0  <0>0        0.1499
     11  C13        4.6010   35.4760   57.7170 C.ar    0  <0>0        0.0381
     12  C18        3.6230   36.0680   56.9390 C.ar    0  <0>0        0.0577
     13  C17        2.2960   35.9970   57.3210 C.ar    0  <0>0        0.0113
     14 Cl          4.0630   36.8940   55.4750 Cl      0  <0>0       -0.0824
     15  C16        1.9460   35.3450   58.4880 C.ar    0  <0>0        0.0032
     16  C15        2.9220   34.7580   59.2720 C.ar    0  <0>0        0.0294
     17  C14        4.2500   34.8230   58.8880 C.ar    0  <0>0        0.1388
     18  F1         5.2050   34.2490   59.6520 F       0  <0>0       -0.2044
     19  C5         9.2790   35.7020   59.3620 C.ar    0  <0>0       -0.0045
     20  C4         9.1810   36.8670   60.0990 C.ar    0  <0>0       -0.0030
     21  C3         9.9820   37.0520   61.2090 C.ar    0  <0>0       -0.0045
     22  C2        10.8830   36.0710   61.5830 C.ar    0  <0>0       -0.0219
     23  C1        11.7570   36.2730   62.7940 C.3     0  <0>0        0.0310
     24  C7        10.9850   34.9090   60.8420 C.ar    0  <0>0       -0.0045
     25  C6        10.1800   34.7220   59.7340 C.ar    0  <0>0       -0.0030
@<TRIPOS>BOND
     1     7     8   ar
     2     7     6   ar
     3    14    12    1
     4     8     4   ar
     5     6     5   ar
     6     4     5   ar
     7     4     3    1
     8     5     9    1
     9    12    13   ar
    10    12    11   ar
    11     3    11    1
    12     3     2    1
    13    13    15   ar
    14     9    10    1
    15     9     1    1
    16    11    17   ar
    17     1     2    1
    18     1    19    1
    19    15    16   ar
    20    17    16   ar
    21    17    18    1
    22    19    25   ar
    23    19    20   ar
    24    25    24   ar
    25    20    21   ar
    26    24    22   ar
    27    21    22   ar
    28    22    23    1
