@<TRIPOS>MOLECULE
ZINC02933310_replica-1.pdb
 19 19 0 0 0
SMALL
GASTEIGER

@<TRIPOS>ATOM
      1  O1        -0.9720   30.1650   54.9100 O.3     0  <0>0       -0.4778
      2  C4        -0.8420   29.0170   54.1960 C.ar    0  <0>0        0.1379
      3  C3        -0.1430   27.9440   54.7280 C.ar    0  <0>0        0.0335
      4  C2        -0.0170   26.7750   54.0020 C.ar    0  <0>0       -0.0086
      5  C1         0.7420   25.6090   54.5800 C.3     0  <0>0        0.0320
      6  C7        -0.5870   26.6740   52.7460 C.ar    0  <0>0        0.0499
      7  C6        -1.2850   27.7440   52.2130 C.ar    0  <0>0       -0.0086
      8 Cl         -0.4290   25.2040   51.8370 Cl      0  <0>0       -0.0829
      9  C5        -1.4130   28.9140   52.9360 C.ar    0  <0>0        0.0335
     10  C8        -1.9060   27.6320   50.8450 C.3     0  <0>0        0.0320
     11  C9         0.2340   30.8140   55.3220 C.3     0  <0>0        0.1823
     12  C10       -0.0630   31.7390   56.5040 C.3     0  <0>0       -0.0334
     13  N1         0.1220   33.1400   56.0780 N.4     0  <0>0        0.3888
     14  H22       -0.7970   33.5760   55.9410 H       0  <0>0       -0.0842
     15  H23        0.6460   33.1590   55.1950 H       0  <0>0       -0.0842
     16  C11        0.8690   33.8920   57.1040 C.3     0  <0>0       -0.0458
     17  C12        0.7620   35.3910   56.8220 C.3     0  <0>0       -0.0215
     18  C13        0.2750   33.5870   58.4820 C.3     0  <0>0       -0.0215
     19  C14        2.3410   33.4730   57.0800 C.3     0  <0>0       -0.0215
@<TRIPOS>BOND
     1    10     7    1
     2     8     6    1
     3     7     6   ar
     4     7     9   ar
     5     6     4   ar
     6     9     2   ar
     7     4     5    1
     8     4     3   ar
     9     2     3   ar
    10     2     1    1
    11     1    11    1
    12    15    13    1
    13    11    12    1
    14    14    13    1
    15    13    12    1
    16    13    16    1
    17    17    16    1
    18    19    16    1
    19    16    18    1
