@<TRIPOS>MOLECULE
ZINC06332543_replica-1.pdb
 24 25 0 0 0
SMALL
GASTEIGER

@<TRIPOS>ATOM
      1  N1         1.4260   31.2580   56.0240 N.am    0  <0>0       -0.3177
      2  H14        1.9060   30.4720   56.3290 H       0  <0>0        0.1484
      3  C2         0.2390   31.1070   55.1780 C.3     0  <0>0        0.0710
      4  C1        -1.0200   31.2250   56.0400 C.3     0  <0>0        0.0212
      5  C3         0.2660   29.7360   54.5000 C.3     0  <0>0        0.0242
      6  C4        -1.1400   29.3760   54.0170 C.3     0  <0>0        0.0280
      7  C5        -1.0700   28.1650   53.1250 C.ar    0  <0>0       -0.0221
      8  C10       -1.6940   28.1770   51.8920 C.ar    0  <0>0       -0.0043
      9  C9        -1.6260   27.0660   51.0710 C.ar    0  <0>0       -0.0003
     10  C8        -0.9410   25.9400   51.4870 C.ar    0  <0>0       -0.0000
     11  C7        -0.3210   25.9260   52.7230 C.ar    0  <0>0       -0.0003
     12  C6        -0.3860   27.0380   53.5420 C.ar    0  <0>0       -0.0043
     13  C11        1.8510   32.4870   56.3760 C.2     0  <0>0        0.1313
     14  S1         1.4430   33.1250   57.9120 S.2     0  <0>0       -0.0189
     15  N2         2.5970   33.2140   55.5210 N.am    0  <0>0       -0.3158
     16  H15        2.8260   32.8520   54.6510 H       0  <0>0        0.1485
     17  C12        3.0590   34.5500   55.9050 C.3     0  <0>0        0.0931
     18  C13        4.0510   35.0650   54.8610 C.3     0  <0>0        0.0475
     19  C14        5.2820   35.5900   55.5540 C.ar    0  <0>0       -0.0205
     20  C19        5.2130   35.9930   56.8750 C.ar    0  <0>0       -0.0042
     21  C18        6.3430   36.4700   57.5120 C.ar    0  <0>0       -0.0003
     22  C17        7.5410   36.5520   56.8270 C.ar    0  <0>0       -0.0000
     23  C16        7.6090   36.1530   55.5050 C.ar    0  <0>0       -0.0003
     24  C15        6.4790   35.6730   54.8690 C.ar    0  <0>0       -0.0042
@<TRIPOS>BOND
     1     9    10   ar
     2     9     8   ar
     3    10    11   ar
     4     8     7   ar
     5    11    12   ar
     6     7    12   ar
     7     7     6    1
     8     6     5    1
     9     5     3    1
    10    16    15    1
    11    18    19    1
    12    18    17    1
    13    24    23   ar
    14    24    19   ar
    15     3     1    1
    16     3     4    1
    17    23    22   ar
    18    15    17    1
    19    15    13    1
    20    19    20   ar
    21     1     2    1
    22     1    13    1
    23    13    14    2
    24    22    21   ar
    25    20    21   ar
