@<TRIPOS>MOLECULE
ZINC13404199_replica-1.pdb
 25 27 0 0 0
SMALL
GASTEIGER

@<TRIPOS>ATOM
      1  C7        -0.5820   28.5660   54.3350 C.ar    0  <0>0        0.0042
      2  C8        -0.7430   27.6270   53.3020 C.ar    0  <0>0        0.0310
      3  C9        -0.1970   26.3180   53.2110 C.ar    0  <0>0        0.1403
      4  C10       -0.4630   25.5250   52.1260 C.ar    0  <0>0        0.0297
      5  C11       -1.2730   25.9660   51.0870 C.ar    0  <0>0        0.0028
      6  C12       -1.8260   27.2300   51.1430 C.ar    0  <0>0        0.0066
      7  C13       -1.5680   28.0400   52.2280 C.ar    0  <0>0        0.0315
      8  S3        -2.0570   29.6830   52.6930 S.2     0  <0>0       -0.0806
      9  C14       -1.1940   29.7790   54.2510 C.ar    0  <0>0        0.1062
     10  F1         0.5940   25.8520   54.2020 F       0  <0>0       -0.2042
     11  C6         0.2700   28.2320   55.5320 C.3     0  <0>0        0.0912
     12  S2        -0.7770   27.5590   56.8520 S.3     0  <0>0       -0.0818
     13  C5        -0.4930   28.6390   58.2150 C.ar    0  <0>0        0.1609
     14  N3        -1.1380   28.7250   59.3620 N.ar    0  <0>0       -0.1332
     15  N2        -0.7420   29.6480   60.3020 N.ar    0  <0>0       -0.1252
     16  C4         0.2810   30.4420   60.0530 C.ar    0  <0>0        0.1829
     17  S1         0.7510   29.9040   58.4150 S.2     0  <0>0       -0.0245
     18  N1         0.8420   31.4320   60.8500 N.pl3   0  <0>0       -0.3116
     19  H8         1.1050   31.2290   61.7620 H       0  <0>0        0.1487
     20  C3         1.0380   32.7820   60.3150 C.3     0  <0>0        0.0887
     21  C2         0.1910   33.7750   61.1130 C.3     0  <0>0        0.0212
     22  C1        -0.0860   33.2030   62.5060 C.3     0  <0>0        0.0018
     23  C15       -1.1510   30.8920   55.2060 C.2     0  <0>0        0.3934
     24  O1        -0.2080   31.6600   55.2030 O.co2   0  <0>0       -0.2400
     25  O2        -2.1560   31.0640   56.0870 O.co2   0  <0>0       -0.2400
@<TRIPOS>BOND
     1     5     6   ar
     2     5     4   ar
     3     6     7   ar
     4     4     3   ar
     5     7     8   ar
     6     7     2   ar
     7     8     9   ar
     8     3     2   ar
     9     3    10    1
    10     2     1   ar
    11     9     1   ar
    12     9    23    1
    13     1    11    1
    14    24    23   ar
    15    23    25   ar
    16    11    12    1
    17    12    13    1
    18    13    17   ar
    19    13    14   ar
    20    17    16   ar
    21    14    15   ar
    22    16    15   ar
    23    16    18    1
    24    20    18    1
    25    20    21    1
    26    18    19    1
    27    21    22    1
