@<TRIPOS>MOLECULE
ZINC57410702_replica-1.pdb
 23 24 0 0 0
SMALL
GASTEIGER

@<TRIPOS>ATOM
      1  N1        10.1030   36.9020   61.0170 N.2     0  <0>0       -0.1845
      2  C10       10.8630   36.3410   61.9700 C.2     0  <0>0        0.0914
      3  C9        11.3320   35.0690   61.8070 C.3     0  <0>0        0.0534
      4  C8        12.5770   34.7000   62.3600 C.3     0  <0>0        0.0358
      5  C7        12.7630   33.4080   62.8700 C.ar    0  <0>0        0.0122
      6  C2        14.0510   33.0120   63.4470 C.ar    0  <0>0        0.1347
      7  C6        11.7120   32.4620   62.8330 C.ar    0  <0>0       -0.0013
      8  C3        14.1900   31.7240   63.9470 C.ar    0  <0>0        0.0366
      9  C4        13.1300   30.8420   63.8900 C.ar    0  <0>0        0.0031
     10  C5        11.9080   31.2150   63.3370 C.ar    0  <0>0       -0.0001
     11  O1        15.0810   33.8850   63.4980 O.3     0  <0>0       -0.4717
     12  C1        15.8030   33.9660   64.7290 C.3     0  <0>0        0.2525
     13  N2         9.8130   36.2380   59.9490 N.pl3   0  <0>0       -0.2362
     14  H11       10.1390   35.3310   59.8380 H       0  <0>0        0.1744
     15  C11        9.0400   36.8180   58.9650 C.ar    0  <0>0        0.0667
     16  C16        8.6590   36.0770   57.8450 C.ar    0  <0>0        0.0401
     17  C15        7.8810   36.6610   56.8670 C.ar    0  <0>0        0.1442
     18  C14        7.4860   37.9820   56.9900 C.ar    0  <0>0        0.0242
     19  C13        7.8650   38.7250   58.0970 C.ar    0  <0>0        0.0030
     20  C12        8.6380   38.1520   59.0830 C.ar    0  <0>0        0.0161
     21  N3         7.4720   35.8750   55.6810 N.pl3   0  <0>0        0.0577
     22  O2         7.0690   34.6290   55.8230 O.2     0  <0>0       -0.1261
     23  O3         7.5120   36.4230   54.4840 O.2     0  <0>0       -0.1261
@<TRIPOS>BOND
     1    23    21    2
     2    21    22    2
     3    21    17    1
     4    17    18   ar
     5    17    16   ar
     6    18    19   ar
     7    16    15   ar
     8    19    20   ar
     9    15    20   ar
    10    15    13    1
    11    14    13    1
    12    13     1    1
    13     1     2    2
    14     3     2    1
    15     3     4    1
    16     4     5    1
    17     7     5   ar
    18     7    10   ar
    19     5     6   ar
    20    10     9   ar
    21     6    11    1
    22     6     8   ar
    23    11    12    1
    24     9     8   ar
