@<TRIPOS>MOLECULE
ZINC00976172_replica-1.pdb
 26 28 0 0 0
SMALL
GASTEIGER

@<TRIPOS>ATOM
      1  C1        -2.3720   28.5980   56.9840 C.3     0  <0>0        0.0314
      2  C2        -1.1950   29.3250   57.5810 C.ar    0  <0>0       -0.0150
      3  C3        -0.8880   29.2100   58.8850 C.ar    0  <0>0        0.0050
      4  S1         0.5560   30.2360   59.0610 S.2     0  <0>0       -0.0768
      5  C4         0.7140   30.7970   57.4300 C.ar    0  <0>0        0.0834
      6  C5        -0.3470   30.1740   56.7760 C.ar    0  <0>0        0.0548
      7  C19       -1.5940   28.4000   59.9430 C.3     0  <0>0        0.0379
      8  N1         1.6660   31.6510   56.9030 N.am    0  <0>0       -0.2753
      9  C13        1.5460   32.9830   57.0770 C.2     0  <0>0        0.2514
     10  O2         0.6550   33.4270   57.7740 O.2     0  <0>0       -0.2697
     11  H8         2.4190   31.2930   56.4090 H       0  <0>0        0.1556
     12  C14        2.4980   33.9020   56.4190 C.ar    0  <0>0        0.0728
     13  C18        3.4900   33.4090   55.5720 C.ar    0  <0>0        0.1034
     14  N2         4.3380   34.2290   54.9860 N.ar    0  <0>0       -0.2422
     15  C17        4.2870   35.5340   55.1720 C.ar    0  <0>0        0.0989
     16  C16        3.3330   36.1010   55.9970 C.ar    0  <0>0        0.0208
     17  C15        2.4180   35.2840   56.6360 C.ar    0  <0>0        0.0077
     18  C6        -0.5910   30.3690   55.3460 C.2     0  <0>0        0.1969
     19  O1        -0.7860   31.4890   54.9090 O.2     0  <0>0       -0.2865
     20  C7        -0.6000   29.2060   54.4320 C.ar    0  <0>0        0.0390
     21  C12       -1.4600   29.1870   53.3320 C.ar    0  <0>0        0.0037
     22  C11       -1.4640   28.1000   52.4840 C.ar    0  <0>0        0.0068
     23  C10       -0.6190   27.0290   52.7200 C.ar    0  <0>0        0.0346
     24  C9         0.2370   27.0430   53.8090 C.ar    0  <0>0        0.0068
     25 Br         -0.6310   25.5430   51.5520 Br      0  <0>0       -0.0490
     26  C8         0.2550   28.1280   54.6610 C.ar    0  <0>0        0.0037
@<TRIPOS>BOND
     1    25    23    1
     2    22    23   ar
     3    22    21   ar
     4    23    24   ar
     5    21    20   ar
     6    24    26   ar
     7    20    26   ar
     8    20    18    1
     9    19    18    2
    10    14    15   ar
    11    14    13   ar
    12    15    16   ar
    13    18     6    1
    14    13    12   ar
    15    16    17   ar
    16    11     8    1
    17    12    17   ar
    18    12     9    1
    19     6     5   ar
    20     6     2   ar
    21     8     9   am
    22     8     5    1
    23     1     2    1
    24     9    10    2
    25     5     4   ar
    26     2     3   ar
    27     3     4   ar
    28     3     7    1
