@<TRIPOS>MOLECULE
ZINC20602854_replica-1.pdb
 30 34 0 0 0
SMALL
GASTEIGER

@<TRIPOS>ATOM
      1  N1         7.0950   32.8910   58.9260 N.pl3   0  <0>0       -0.1661
      2  C8         8.1190   33.6090   59.4930 C.2     0  <0>0        0.1915
      3  C9         7.9220   34.9520   59.1090 C.3     0  <0>0        0.1298
      4  C10        8.8260   35.9290   59.5480 C.2     0  <0>0        0.0370
      5  C11        9.8730   35.5390   60.3360 C.2     0  <0>0        0.0298
      6  C12       10.0120   34.1900   60.6800 C.2     0  <0>0        0.1322
      7  N2         9.1490   33.2800   60.2580 N.2     0  <0>0       -0.3888
      8  C20        6.7570   34.9860   58.3060 C.2     0  <0>0        0.0659
      9  N3         6.2850   33.7770   58.2080 N.2     0  <0>0       -0.1800
     10  C5         6.8980   31.5080   59.0450 C.ar    0  <0>0        0.0764
     11  C4         6.2010   30.9980   60.1330 C.ar    0  <0>0        0.0199
     12  C3         6.0070   29.6360   60.2500 C.ar    0  <0>0        0.0382
     13  C2         6.5080   28.7770   59.2830 C.ar    0  <0>0        0.1388
     14  C7         7.2050   29.2860   58.1970 C.ar    0  <0>0        0.0382
     15  C6         7.3950   30.6480   58.0760 C.ar    0  <0>0        0.0199
     16  O1         6.3170   27.4360   59.3990 O.3     0  <0>0       -0.4714
     17  C1         5.0820   27.0030   59.9720 C.3     0  <0>0        0.2525
     18  C21        6.1610   36.2170   57.6720 C.3     0  <0>0        0.0385
     19  C23        6.3820   36.4160   56.1720 C.3     0  <0>0        0.0060
     20  C22        5.0000   36.0180   56.6970 C.3     0  <0>0        0.0060
     21  C13       11.1490   33.7710   61.5350 C.ar    0  <0>0        0.0297
     22  C18       11.0640   32.6030   62.2910 C.ar    0  <0>0        0.0034
     23  C17       12.1250   32.2170   63.0830 C.ar    0  <0>0        0.0115
     24  C16       13.2740   32.9890   63.1290 C.ar    0  <0>0        0.0577
     25  C15       13.3650   34.1500   62.3800 C.ar    0  <0>0        0.0115
     26 Cl         14.6060   32.4980   64.1290 Cl      0  <0>0       -0.0822
     27  C14       12.3110   34.5420   61.5810 C.ar    0  <0>0        0.0034
     28  C19        8.6500   37.3740   59.1600 C.3     0  <0>0        0.3380
     29  F1         9.4210   38.1820   60.0040 F       0  <0>0       -0.1936
     30  F2         9.0660   37.5560   57.8360 F       0  <0>0       -0.1936
@<TRIPOS>BOND
     1    19    20    1
     2    19    18    1
     3    20    18    1
     4    18     8    1
     5    30    28    1
     6    15    14   ar
     7    15    10   ar
     8    14    13   ar
     9     9     8    2
    10     9     1    1
    11     8     3    1
    12     1    10    1
    13     1     2    1
    14    10    11   ar
    15     3     2    1
    16     3     4    1
    17    28     4    1
    18    28    29    1
    19    13    16    1
    20    13    12   ar
    21    16    17    1
    22     2     7    2
    23     4     5    2
    24    11    12   ar
    25     7     6    2
    26     5     6    1
    27     6    21    1
    28    21    27   ar
    29    21    22   ar
    30    27    25   ar
    31    22    23   ar
    32    25    24   ar
    33    23    24   ar
    34    24    26    1
