@<TRIPOS>MOLECULE
ZINC01002735_replica-1.pdb
 29 32 0 0 0
SMALL
GASTEIGER

@<TRIPOS>ATOM
      1  C8        -0.7210   28.8090   54.8420 C.2     0  <0>0        0.1308
      2  C9        -0.0340   30.0320   54.8920 C.2     0  <0>0        0.0330
      3  C10        0.2650   30.5950   56.1240 C.2     0  <0>0        0.0441
      4  C11       -0.1750   29.8710   57.3170 C.3     0  <0>0        0.1014
      5  C12        0.0730   30.3630   58.6030 C.2     0  <0>0       -0.0082
      6  C13       -0.3530   29.6550   59.6900 C.2     0  <0>0        0.0311
      7  C14       -1.0350   28.4500   59.5330 C.2     0  <0>0        0.0087
      8  C15       -1.2940   27.9450   58.2960 C.2     0  <0>0        0.0287
      9  C16       -0.8680   28.6460   57.1530 C.2     0  <0>0        0.1169
     10  N1        -1.1080   28.1750   55.9280 N.2     0  <0>0       -0.4056
     11 Br         -0.0170   30.3190   61.4280 Br      0  <0>0       -0.0493
     12  C17        0.9920   31.8790   56.2280 C.2     0  <0>0        0.2429
     13  O1         0.3740   32.9190   56.3400 O.2     0  <0>0       -0.2705
     14  N2         2.3390   31.8950   56.1970 N.am    0  <0>0       -0.2971
     15  H12        2.8310   31.0640   56.1090 H       0  <0>0        0.1500
     16  C18        3.0590   33.1650   56.3000 C.3     0  <0>0        0.1181
     17  C19        4.5410   32.8990   56.3740 C.ar    0  <0>0        0.0166
     18  C23        5.4150   33.5740   55.5420 C.ar    0  <0>0        0.0962
     19  N3         6.7130   33.3450   55.6000 N.ar    0  <0>0       -0.2426
     20  C22        7.2260   32.4730   56.4450 C.ar    0  <0>0        0.0989
     21  C21        6.4130   31.7620   57.3070 C.ar    0  <0>0        0.0204
     22  C20        5.0440   31.9700   57.2710 C.ar    0  <0>0        0.0005
     23  C6        -1.0280   28.2150   53.5180 C.ar    0  <0>0        0.0293
     24  C5        -1.7490   28.9440   52.5740 C.ar    0  <0>0        0.0025
     25  C4        -2.0270   28.3880   51.3420 C.ar    0  <0>0       -0.0002
     26  C3        -1.6010   27.1050   51.0480 C.ar    0  <0>0       -0.0043
     27  C2        -0.8900   26.3750   51.9830 C.ar    0  <0>0       -0.0218
     28  C1        -0.4290   24.9780   51.6540 C.3     0  <0>0        0.0310
     29  C7        -0.6010   26.9230   53.2150 C.ar    0  <0>0       -0.0017
@<TRIPOS>BOND
     1    26    25   ar
     2    26    27   ar
     3    25    24   ar
     4    28    27    1
     5    27    29   ar
     6    24    23   ar
     7    29    23   ar
     8    23     1    1
     9     1     2    1
    10     1    10    2
    11     2     3    2
    12    18    19   ar
    13    18    17   ar
    14    19    20   ar
    15    10     9    2
    16    15    14    1
    17     3    12    1
    18     3     4    1
    19    14    12   am
    20    14    16    1
    21    12    13    2
    22    16    17    1
    23    17    22   ar
    24    20    21   ar
    25     9     4    1
    26     9     8    1
    27    22    21   ar
    28     4     5    1
    29     8     7    2
    30     5     6    2
    31     7     6    1
    32     6    11    1
