@<TRIPOS>MOLECULE
ZINC66183481_replica-1.pdb
 23 24 0 0 0
SMALL
GASTEIGER

@<TRIPOS>ATOM
      1  N1        11.1070   34.5030   61.3300 N.pl3   0  <0>0       -0.3313
      2  H5        10.6090   34.0550   60.6270 H       0  <0>0        0.1469
      3  C5        12.1250   33.8250   62.0040 C.ar    0  <0>0        0.0446
      4  C4        11.8630   32.6060   62.6170 C.ar    0  <0>0        0.0181
      5  C3        12.8720   31.9380   63.2830 C.ar    0  <0>0        0.0726
      6  C2        14.1410   32.4810   63.3410 C.ar    0  <0>0        0.0039
      7  C1        14.4070   33.6950   62.7320 C.ar    0  <0>0        0.0012
      8  C6        13.4020   34.3680   62.0640 C.ar    0  <0>0        0.0143
      9  C15       12.5880   30.6150   63.9470 C.3     0  <0>0        0.4186
     10  F2        13.0670   29.5780   63.1400 F       0  <0>0       -0.1659
     11  F3        13.2280   30.5710   65.1910 F       0  <0>0       -0.1659
     12  F4        11.2090   30.4690   64.1260 F       0  <0>0       -0.1659
     13  C7        10.7910   35.8890   61.6830 C.3     0  <0>0        0.1085
     14  C8         9.3450   36.1990   61.2880 C.3     0  <0>0        0.1085
     15  N2         9.3160   37.3950   60.4430 N.pl3   0  <0>0       -0.3313
     16  H10        9.5500   38.2590   60.8180 H       0  <0>0        0.1469
     17  C9         8.9520   37.2920   59.0970 C.ar    0  <0>0        0.0448
     18  C14        8.6120   38.4310   58.3790 C.ar    0  <0>0        0.0166
     19  C13        8.2570   38.3270   57.0490 C.ar    0  <0>0        0.0309
     20  C12        8.2300   37.0870   56.4330 C.ar    0  <0>0        0.1402
     21  C11        8.5630   35.9500   57.1490 C.ar    0  <0>0        0.0309
     22  F1         7.8770   36.9870   55.1330 F       0  <0>0       -0.2042
     23  C10        8.9230   36.0500   58.4780 C.ar    0  <0>0        0.0166
@<TRIPOS>BOND
     1    22    20    1
     2    20    19   ar
     3    20    21   ar
     4    19    18   ar
     5    21    23   ar
     6    18    17   ar
     7    23    17   ar
     8    17    15    1
     9    15    16    1
    10    15    14    1
    11     2     1    1
    12    14    13    1
    13     1    13    1
    14     1     3    1
    15     3     8   ar
    16     3     4   ar
    17     8     7   ar
    18     4     5   ar
    19     7     6   ar
    20    10     9    1
    21     5     6   ar
    22     5     9    1
    23     9    12    1
    24     9    11    1
