@<TRIPOS>MOLECULE
ZINC35324241_replica-1.pdb
 31 34 0 0 0
SMALL
GASTEIGER

@<TRIPOS>ATOM
      1  C8         9.8980   34.2220   60.8030 C.2     0  <0>0        0.1312
      2  C9         9.8190   35.5340   60.3230 C.2     0  <0>0        0.0297
      3  C10        8.7380   35.9410   59.6030 C.2     0  <0>0        0.0361
      4  C11        7.6910   35.0170   59.3430 C.3     0  <0>0        0.1180
      5  C12        6.4580   35.2320   58.6040 C.2     0  <0>0        0.0387
      6  C13        5.5780   34.1760   58.4780 C.2     0  <0>0        0.0804
      7  S1         6.3890   32.8560   59.3590 S.3     0  <0>0       -0.0550
      8  C14        7.8570   33.7140   59.8680 C.2     0  <0>0        0.1473
      9  N1         8.9200   33.3610   60.5560 N.2     0  <0>0       -0.3991
     10  C5        11.0820   33.7940   61.5860 C.ar    0  <0>0        0.0298
     11  C4        11.0410   32.6080   62.3210 C.ar    0  <0>0        0.0057
     12  C3        12.1420   32.2120   63.0470 C.ar    0  <0>0        0.0370
     13  C2        13.2930   32.9910   63.0490 C.ar    0  <0>0        0.1387
     14  C7        13.3340   34.1740   62.3230 C.ar    0  <0>0        0.0370
     15  C6        12.2370   34.5740   61.5900 C.ar    0  <0>0        0.0057
     16  O1        14.3760   32.5970   63.7670 O.3     0  <0>0       -0.4714
     17  C1        15.2600   33.6230   64.2230 C.3     0  <0>0        0.2525
     18  C20        8.6530   37.3530   59.0860 C.3     0  <0>0        0.3380
     19  F1         9.4440   38.1890   59.8820 F       0  <0>0       -0.1936
     20  F2         9.1120   37.3940   57.7660 F       0  <0>0       -0.1936
     21  N2         6.1730   36.4660   58.0380 N.pl3   0  <0>0       -0.3592
     22  H11        6.8910   37.0180   57.6900 H       0  <0>0        0.1421
     23  H12        5.2550   36.7790   57.9910 H       0  <0>0        0.1421
     24  C15        4.3270   34.1490   57.8110 C.2     0  <0>0        0.2084
     25  O2         4.2820   33.9450   56.6080 O.2     0  <0>0       -0.2855
     26  C16        3.0870   34.3640   58.5650 C.ar    0  <0>0        0.0697
     27  S2         2.4690   33.4810   59.9860 S.2     0  <0>0       -0.0723
     28  C19        1.0400   34.3310   60.2260 C.ar    0  <0>0        0.0871
     29  C18        1.0350   35.2600   59.2370 C.ar    0  <0>0        0.0186
     30 Cl         -0.1590   34.0740   61.4550 Cl      0  <0>0       -0.0752
     31  C17        2.0890   35.3030   58.3560 C.ar    0  <0>0        0.0111
@<TRIPOS>BOND
     1    25    24    2
     2    22    21    1
     3    20    18    1
     4    24     6    1
     5    24    26    1
     6    23    21    1
     7    21     5    1
     8    31    26   ar
     9    31    29   ar
    10     6     5    2
    11     6     7    1
    12    26    27   ar
    13     5     4    1
    14    18     3    1
    15    18    19    1
    16    29    28   ar
    17     4     3    1
    18     4     8    1
    19     7     8    1
    20     3     2    2
    21     8     9    2
    22    27    28   ar
    23    28    30    1
    24     2     1    1
    25     9     1    2
    26     1    10    1
    27    10    15   ar
    28    10    11   ar
    29    15    14   ar
    30    11    12   ar
    31    14    13   ar
    32    12    13   ar
    33    13    16    1
    34    16    17    1
