@<TRIPOS>MOLECULE
ZINC32230478_replica-1.pdb
 25 26 0 0 0
SMALL
GASTEIGER

@<TRIPOS>ATOM
      1  C9         1.4300   35.3310   56.8400 C.3     0  <0>0        0.1735
      2  C8         1.3830   33.8020   56.8260 C.3     0  <0>0        0.1206
      3  N1         2.2400   33.2970   55.7500 N.pl3   0  <0>0       -0.3306
      4  H9         1.7970   32.9940   54.7900 H       0  <0>0        0.1469
      5  C5         3.6210   33.2020   55.9450 C.ar    0  <0>0        0.0447
      6  C4         4.4890   33.9230   55.1340 C.ar    0  <0>0        0.0140
      7  C3         5.8530   33.8270   55.3290 C.ar    0  <0>0       -0.0030
      8  C2         6.3540   33.0150   56.3300 C.ar    0  <0>0       -0.0218
      9  C1         7.8430   32.9120   56.5390 C.3     0  <0>0        0.0310
     10  C7         5.4920   32.2960   57.1380 C.ar    0  <0>0       -0.0030
     11  C6         4.1270   32.3910   56.9520 C.ar    0  <0>0        0.0140
     12  C10        2.2200   35.8060   58.0600 C.3     0  <0>0        0.2361
     13  O1         3.4930   36.3000   57.6410 O.3     0  <0>0       -0.4728
     14  C11        4.5780   35.8880   58.3490 C.ar    0  <0>0        0.1384
     15  C16        5.8440   36.3400   58.0060 C.ar    0  <0>0        0.0326
     16  C15        6.9450   35.9190   58.7270 C.ar    0  <0>0       -0.0198
     17  C14        6.7870   35.0460   59.7860 C.ar    0  <0>0       -0.0041
     18  C13        5.5260   34.5990   60.1340 C.ar    0  <0>0        0.0028
     19  C12        4.4210   35.0160   59.4160 C.ar    0  <0>0        0.0369
     20  C17        8.3210   36.4100   58.3540 C.3     0  <0>0        0.0190
     21  C18        9.3680   35.3950   58.8180 C.3     0  <0>0        0.0044
     22  C19        8.5820   37.7570   59.0290 C.3     0  <0>0        0.0044
     23  C20        8.4080   36.5740   56.8350 C.3     0  <0>0        0.0044
     24  O2         0.0980   35.8470   56.9040 O.3     0  <0>0       -0.3791
     25  H27       -0.6200   35.4290   57.6260 H       0  <0>0        0.2106
@<TRIPOS>BOND
     1     4     3    1
     2     6     7   ar
     3     6     5   ar
     4     7     8   ar
     5     3     5    1
     6     3     2    1
     7     5    11   ar
     8     8     9    1
     9     8    10   ar
    10     2     1    1
    11    23    20    1
    12     1    24    1
    13     1    12    1
    14    24    25    1
    15    11    10   ar
    16    13    12    1
    17    13    14    1
    18    15    14   ar
    19    15    16   ar
    20    14    19   ar
    21    20    16    1
    22    20    21    1
    23    20    22    1
    24    16    17   ar
    25    19    18   ar
    26    17    18   ar
