@<TRIPOS>MOLECULE
ZINC37518577_replica-1.pdb
 20 20 0 0 0
SMALL
GASTEIGER

@<TRIPOS>ATOM
      1  C8        -0.1580   28.4180   54.8610 C.ar    0  <0>0        0.0485
      2  C9         0.5340   27.2180   54.9680 C.ar    0  <0>0        0.0147
      3  C10        0.3970   26.2540   53.9900 C.ar    0  <0>0        0.0079
      4  C11       -0.4300   26.4820   52.9030 C.ar    0  <0>0        0.0346
      5  C12       -1.1200   27.6750   52.7940 C.ar    0  <0>0        0.0118
      6  C13       -0.9910   28.6410   53.7720 C.ar    0  <0>0        0.0850
      7 Br         -0.6150   25.1580   51.5650 Br      0  <0>0       -0.0490
      8  N1        -0.0210   29.3950   55.8500 N.pl3   0  <0>0       -0.3341
      9  H16        0.1840   30.3110   55.6020 H       0  <0>0        0.1468
     10  C6        -0.1850   29.0380   57.2610 C.3     0  <0>0        0.0691
     11  C7         0.7090   29.9340   58.1210 C.3     0  <0>0        0.0212
     12  C5        -1.6460   29.2330   57.6700 C.3     0  <0>0        0.0195
     13  C4        -2.4170   27.9310   57.4430 C.3     0  <0>0        0.0017
     14  C3        -2.5870   27.2000   58.7770 C.3     0  <0>0        0.0001
     15  C2        -2.3170   25.7070   58.5770 C.3     0  <0>0        0.0000
     16  C1        -0.9340   25.5190   57.9500 C.3     0  <0>0        0.0000
     17  C14       -1.7490   29.9390   53.6550 C.3     0  <0>0        0.4197
     18  F1        -2.6950   30.0200   54.6810 F       0  <0>0       -0.1658
     19  F2        -0.8550   31.0110   53.7600 F       0  <0>0       -0.1658
     20  F3        -2.3960   29.9910   52.4170 F       0  <0>0       -0.1658
@<TRIPOS>BOND
     1     7     4    1
     2    20    17    1
     3     5     4   ar
     4     5     6   ar
     5     4     3   ar
     6    17    19    1
     7    17     6    1
     8    17    18    1
     9     6     1   ar
    10     3     2   ar
    11     1     2   ar
    12     1     8    1
    13     9     8    1
    14     8    10    1
    15    10    12    1
    16    10    11    1
    17    13    12    1
    18    13    14    1
    19    16    15    1
    20    15    14    1
