@<TRIPOS>MOLECULE
ZINC43224558_replica-1.pdb
 25 26 0 0 0
SMALL
GASTEIGER

@<TRIPOS>ATOM
      1  N1         7.0640   36.0560   57.6760 N.ar    0  <0>0       -0.3338
      2  C5         6.6860   36.0040   56.3830 C.ar    0  <0>0        0.0415
      3  C6         5.3820   35.6030   56.3240 C.ar    0  <0>0        0.0658
      4  C7         4.9540   35.4020   57.7200 C.ar    0  <0>0        0.0171
      5  C8         6.0340   35.6910   58.4890 C.ar    0  <0>0        0.0369
      6  C19        7.5580   36.3330   55.1990 C.3     0  <0>0        0.0501
      7  C12        3.6160   34.9650   58.1890 C.ar    0  <0>0        0.0014
      8  C17        3.3010   33.6080   58.2360 C.ar    0  <0>0        0.0023
      9  C16        2.0560   33.2070   58.6790 C.ar    0  <0>0        0.0296
     10  C15        1.1180   34.1510   59.0630 C.ar    0  <0>0        0.1401
     11  C14        1.4260   35.5000   59.0120 C.ar    0  <0>0        0.0296
     12  F1        -0.1010   33.7530   59.4910 F       0  <0>0       -0.2042
     13  C13        2.6690   35.9110   58.5770 C.ar    0  <0>0        0.0023
     14  C18        4.5680   35.4130   55.1120 C.2     0  <0>0        0.2439
     15  O1         4.8600   34.5420   54.3150 O.2     0  <0>0       -0.2703
     16  N2         3.5000   36.2030   54.8870 N.am    0  <0>0       -0.3253
     17  H21        3.2670   36.8970   55.5240 H       0  <0>0        0.1453
     18  H22        2.9640   36.0780   54.0890 H       0  <0>0        0.1453
     19  C9         6.0850   35.6240   59.9940 C.3     0  <0>0        0.0438
     20  C10        6.4940   34.2150   60.4270 C.3     0  <0>0        0.0062
     21  C11        5.3240   33.5420   61.1470 C.3     0  <0>0        0.0004
     22  C4         8.3980   36.4430   58.1400 C.3     0  <0>0        0.1054
     23  C3         9.2800   35.1980   58.2550 C.3     0  <0>0        0.0245
     24  C2        10.0420   35.2350   59.5820 C.3     0  <0>0        0.0020
     25  C1         9.7410   36.5490   60.3060 C.3     0  <0>0        0.0001
@<TRIPOS>BOND
     1    18    16    1
     2    15    14    2
     3    16    14   am
     4    16    17    1
     5    14     3    1
     6     6     2    1
     7     3     2   ar
     8     3     4   ar
     9     2     1   ar
    10     1    22    1
    11     1     5   ar
    12     4     7    1
    13     4     5   ar
    14    22    23    1
    15     7     8   ar
    16     7    13   ar
    17     8     9   ar
    18    23    24    1
    19     5    19    1
    20    13    11   ar
    21     9    10   ar
    22    11    10   ar
    23    10    12    1
    24    24    25    1
    25    19    20    1
    26    20    21    1
