@<TRIPOS>MOLECULE
ZINC49148840_replica-1.pdb
 23 24 0 0 0
SMALL
GASTEIGER

@<TRIPOS>ATOM
      1  C3         7.9320   36.9490   57.8390 C.3     0  <0>0        0.0708
      2  C2         8.1770   36.1080   56.5840 C.3     0  <0>0       -0.0048
      3  C1         7.6370   36.8500   55.3590 C.3     0  <0>0       -0.0013
      4  C4         8.8630   36.5000   58.9350 C.ar    0  <0>0       -0.0304
      5  C9         9.0210   37.2750   60.0690 C.ar    0  <0>0       -0.0057
      6  C8         9.8730   36.8610   61.0750 C.ar    0  <0>0       -0.0004
      7  C7        10.5730   35.6760   60.9450 C.ar    0  <0>0       -0.0000
      8  C6        10.4180   34.9030   59.8080 C.ar    0  <0>0       -0.0004
      9  C5         9.5640   35.3160   58.8040 C.ar    0  <0>0       -0.0057
     10  C10        8.1860   38.4010   57.5280 C.2     0  <0>0        0.3503
     11  O1         9.2080   38.7310   56.9490 O.co2   0  <0>0       -0.2476
     12  O2         7.3720   39.2480   57.8560 O.co2   0  <0>0       -0.2476
     13  N1         6.5400   36.7790   58.2770 N.4     0  <0>0        0.3996
     14  H12        6.4990   36.8170   59.2840 H       0  <0>0       -0.0825
     15  H18        5.9730   37.5160   57.8890 H       0  <0>0       -0.0825
     16  C11        6.0370   35.4780   57.8150 C.3     0  <0>0       -0.0310
     17  C12        4.6500   35.6590   57.1960 C.3     0  <0>0       -0.0183
     18  C13        5.9460   34.5310   58.9840 C.ar    0  <0>0       -0.0117
     19  S1         6.6160   32.8850   59.1530 S.2     0  <0>0       -0.0819
     20  C16        6.0370   32.5450   60.8070 C.ar    0  <0>0        0.0866
     21  C15        5.3740   33.6890   61.1130 C.ar    0  <0>0        0.0181
     22 Cl          6.2600   31.1190   61.7710 Cl      0  <0>0       -0.0752
     23  C14        5.3270   34.7060   60.1780 C.ar    0  <0>0        0.0015
@<TRIPOS>BOND
     1     3     2    1
     2     2     1    1
     3    11    10   ar
     4    17    16    1
     5    10     1    1
     6    10    12   ar
     7    16    13    1
     8    16    18    1
     9     1    13    1
    10     1     4    1
    11    15    13    1
    12    13    14    1
    13     9     4   ar
    14     9     8   ar
    15     4     5   ar
    16    18    19   ar
    17    18    23   ar
    18    19    20   ar
    19     8     7   ar
    20     5     6   ar
    21    23    21   ar
    22    20    21   ar
    23    20    22    1
    24     7     6   ar
