@<TRIPOS>MOLECULE
ZINC39521632_replica-1.pdb
 26 28 0 0 0
SMALL
GASTEIGER

@<TRIPOS>ATOM
      1  C4         6.0830   36.2940   57.3190 C.3     0  <0>0        0.2037
      2  C5         6.5600   36.9780   56.0330 C.3     0  <0>0        0.0444
      3  C6         7.4290   38.1850   56.3940 C.3     0  <0>0        0.0052
      4  C7         8.6580   37.7160   57.1760 C.3     0  <0>0        0.0184
      5  C8         8.2060   37.0380   58.4710 C.3     0  <0>0        0.0619
      6  N1         7.2530   35.9690   58.1460 N.pl3   0  <0>0       -0.2914
      7  C15        9.4170   36.4420   59.1890 C.3     0  <0>0        0.0184
      8  C16        8.9600   35.7610   60.4800 C.3     0  <0>0        0.0044
      9  C17        8.2820   36.7890   61.3880 C.3     0  <0>0        0.0354
     10  C18        7.0680   37.3820   60.6680 C.3     0  <0>0        0.1626
     11  C19        7.5250   38.0650   59.3770 C.3     0  <0>0        0.0534
     12  F1         6.1630   36.3620   60.3610 F       0  <0>0       -0.2372
     13  C9         7.4580   34.6650   58.6120 C.ar    0  <0>0        0.0830
     14  C14        8.3420   33.8170   57.9500 C.ar    0  <0>0        0.1469
     15  C13        8.5440   32.5290   58.4190 C.ar    0  <0>0        0.0379
     16  C12        7.8600   32.0840   59.5350 C.ar    0  <0>0        0.0032
     17  C11        6.9780   32.9230   60.1900 C.ar    0  <0>0        0.0015
     18  C10        6.7750   34.2120   59.7310 C.ar    0  <0>0        0.0176
     19  O3         9.0100   34.2540   56.8490 O.3     0  <0>0       -0.5043
     20  H20        9.3920   35.1380   56.9460 H       0  <0>0        0.2922
     21  S1         5.1910   34.7700   56.9010 S.O2    0  <0>0        0.0040
     22  O1         4.5020   34.3210   58.0610 O.2     0  <0>0       -0.1715
     23  O2         6.0920   33.8870   56.2470 O.2     0  <0>0       -0.1715
     24  C2         3.9660   35.3410   55.6920 C.3     0  <0>0        0.1310
     25  C1         4.1860   34.6170   54.3630 C.3     0  <0>0        0.0254
     26  C3         2.5580   35.0380   56.2110 C.3     0  <0>0        0.0254
@<TRIPOS>BOND
     1    25    24    1
     2    24    26    1
     3    24    21    1
     4     2     3    1
     5     2     1    1
     6    23    21    2
     7     3     4    1
     8    19    20    1
     9    19    14    1
    10    21     1    1
    11    21    22    2
    12     4     5    1
    13     1     6    1
    14    14    15   ar
    15    14    13   ar
    16     6     5    1
    17     6    13    1
    18    15    16   ar
    19     5     7    1
    20     5    11    1
    21    13    18   ar
    22     7     8    1
    23    11    10    1
    24    16    17   ar
    25    18    17   ar
    26    12    10    1
    27     8     9    1
    28    10     9    1
