@<TRIPOS>MOLECULE
ZINC43614623_replica-1.pdb
 19 20 0 0 0
SMALL
GASTEIGER

@<TRIPOS>ATOM
      1  C7        10.6550   35.0330   60.7490 C.ar    0  <0>0        0.1382
      2  C8        10.4910   36.2090   61.4660 C.ar    0  <0>0        0.0366
      3  C9         9.7530   37.2420   60.9270 C.ar    0  <0>0       -0.0015
      4  C10        9.1750   37.1160   59.6700 C.ar    0  <0>0       -0.0259
      5  C11        9.3410   35.9520   58.9530 C.ar    0  <0>0       -0.0231
      6  C12       10.0840   34.9110   59.4940 C.ar    0  <0>0        0.0323
      7  C13        8.7550   35.7540   57.5800 C.3     0  <0>0        0.0261
      8  C14        7.6480   36.7720   57.3160 C.3     0  <0>0        0.0050
      9  C15        8.1910   38.1700   57.6360 C.3     0  <0>0        0.0050
     10  C16        8.3760   38.2810   59.1470 C.3     0  <0>0        0.0260
     11  O3        11.3780   34.0090   61.2730 O.3     0  <0>0       -0.4749
     12  C6        12.5500   34.3540   62.0150 C.3     0  <0>0        0.2164
     13  C4        12.6440   33.4710   63.2610 C.3     0  <0>0        0.1425
     14  C5        11.6990   32.2780   63.1110 C.3     0  <0>0        0.0156
     15  C3        14.0590   32.9750   63.4180 C.2     0  <0>0        0.3201
     16  O2        14.2800   31.7900   63.4860 O.2     0  <0>0       -0.2500
     17  O1        15.0730   33.8520   63.4810 O.3     0  <0>0       -0.4484
     18  C2        15.7350   33.9890   64.7400 C.3     0  <0>0        0.2086
     19  C1        17.1510   34.5240   64.5170 C.3     0  <0>0        0.0513
@<TRIPOS>BOND
     1     8     7    1
     2     8     9    1
     3     7     5    1
     4     9    10    1
     5     5     6   ar
     6     5     4   ar
     7    10     4    1
     8     6     1   ar
     9     4     3   ar
    10     1    11    1
    11     1     2   ar
    12     3     2   ar
    13    11    12    1
    14    12    13    1
    15    14    13    1
    16    13    15    1
    17    15    17    1
    18    15    16    2
    19    17    18    1
    20    19    18    1
