@<TRIPOS>MOLECULE
ZINC37392395_replica-1.pdb
 21 21 0 0 0
SMALL
GASTEIGER

@<TRIPOS>ATOM
      1  C7        10.8750   35.5280   61.9760 C.3     0  <0>0        0.1466
      2  C8        11.5980   36.7700   62.5030 C.3     0  <0>0        0.0311
      3  C6        10.0190   35.9090   60.7970 C.2     0  <0>0        0.2402
      4  N1         9.0190   36.8000   60.9490 N.am    0  <0>0       -0.3046
      5  H13        8.8520   37.1960   61.8180 H       0  <0>0        0.1494
      6  O1        10.2280   35.4120   59.7100 O.2     0  <0>0       -0.2733
      7  C3         8.1860   37.1690   59.8020 C.3     0  <0>0        0.0716
      8  C2         6.7420   37.3730   60.2650 C.3     0  <0>0        0.0196
      9  C1         6.0950   36.0120   60.5340 C.3     0  <0>0        0.0017
     10  C4         8.7120   38.4670   59.1860 C.3     0  <0>0        0.0196
     11  C5         8.4040   38.4820   57.6880 C.3     0  <0>0        0.0017
     12  N2        11.8620   34.5280   61.5620 N.pl3   0  <0>0       -0.3263
     13  H17       12.4190   34.6900   60.7840 H       0  <0>0        0.1472
     14  C9        12.0010   33.3410   62.2860 C.ar    0  <0>0        0.0556
     15  C14       13.2490   32.9610   62.7670 C.ar    0  <0>0        0.0712
     16  C13       13.3820   31.7890   63.4880 C.ar    0  <0>0        0.0193
     17 Cl         14.6360   33.9590   62.4680 Cl      0  <0>0       -0.0809
     18  C12       12.2760   30.9900   63.7220 C.ar    0  <0>0        0.0355
     19  C11       11.0350   31.3630   63.2390 C.ar    0  <0>0        0.0080
     20 Br         12.4630   29.3830   64.7010 Br      0  <0>0       -0.0490
     21  C10       10.8940   32.5360   62.5230 C.ar    0  <0>0        0.0157
@<TRIPOS>BOND
     1    11    10    1
     2    10     7    1
     3     6     3    2
     4     7     8    1
     5     7     4    1
     6     8     9    1
     7    13    12    1
     8     3     4   am
     9     3     1    1
    10     4     5    1
    11    12     1    1
    12    12    14    1
    13     1     2    1
    14    14    21   ar
    15    14    15   ar
    16    17    15    1
    17    21    19   ar
    18    15    16   ar
    19    19    18   ar
    20    16    18   ar
    21    18    20    1
