@<TRIPOS>MOLECULE
ZINC51173019_replica-1.pdb
 21 23 0 0 0
SMALL
GASTEIGER

@<TRIPOS>ATOM
      1  C2        12.3110   34.6440   62.6980 C.ar    0  <0>0        0.1387
      2  C3        12.0340   35.9080   63.2300 C.ar    0  <0>0        0.0369
      3  C4        11.1830   36.7600   62.6000 C.ar    0  <0>0        0.0031
      4  C5        10.5690   36.3710   61.3970 C.ar    0  <0>0       -0.0000
      5  C6         9.6840   37.2270   60.7200 C.ar    0  <0>0       -0.0016
      6  C7         9.1070   36.8170   59.5580 C.ar    0  <0>0        0.0089
      7  C8         9.3800   35.5580   59.0250 C.ar    0  <0>0       -0.0016
      8  C9        10.2320   34.7020   59.6540 C.ar    0  <0>0       -0.0001
      9  C10       10.8470   35.0900   60.8560 C.ar    0  <0>0        0.0030
     10  C11       11.7350   34.2350   61.5290 C.ar    0  <0>0        0.0369
     11  C12        8.1570   37.7380   58.8350 C.3     0  <0>0        0.1609
     12  C13        6.8350   37.0420   58.6390 C.ar    0  <0>0        0.0388
     13  S1         6.1460   36.3370   57.1500 S.2     0  <0>0       -0.0772
     14  C16        4.6080   35.7500   57.8390 C.ar    0  <0>0        0.0867
     15  C15        4.7160   36.1310   59.1360 C.ar    0  <0>0        0.0182
     16 Cl          3.3060   34.9130   57.0500 Cl      0  <0>0       -0.0752
     17  C14        5.8590   36.7950   59.5450 C.ar    0  <0>0        0.0063
     18  O2         7.9630   38.9230   59.6080 O.3     0  <0>0       -0.3751
     19  H13        8.7500   39.4810   59.6800 H       0  <0>0        0.2113
     20  O1        13.1660   33.8140   63.3500 O.3     0  <0>0       -0.4714
     21  C1        14.3460   33.4160   62.6490 C.3     0  <0>0        0.2525
@<TRIPOS>BOND
     1    16    14    1
     2    13    14   ar
     3    13    12   ar
     4    14    15   ar
     5    12    11    1
     6    12    17   ar
     7    11     6    1
     8    11    18    1
     9     7     6   ar
    10     7     8   ar
    11    15    17   ar
    12     6     5   ar
    13    18    19    1
    14     8     9   ar
    15     5     4   ar
    16     9     4   ar
    17     9    10   ar
    18     4     3   ar
    19    10     1   ar
    20     3     2   ar
    21    21    20    1
    22     1     2   ar
    23     1    20    1
