@<TRIPOS>MOLECULE
ZINC41588754_replica-1.pdb
 30 34 0 0 0
SMALL
GASTEIGER

@<TRIPOS>ATOM
      1  C6         0.4690   31.1310   57.7530 C.2     0  <0>0        0.0470
      2  C7         1.4950   32.0290   57.7920 C.2     0  <0>0        0.1845
      3  C8         2.0150   32.6440   58.9630 C.2     0  <0>0        0.2327
      4  O1         1.6430   32.4810   60.1130 O.2     0  <0>0       -0.2832
      5  C9         3.1000   33.5200   58.4890 C.ar    0  <0>0        0.0762
      6  C10        3.9880   34.3840   59.1290 C.ar    0  <0>0        0.0064
      7  C11        4.9110   35.0820   58.3990 C.ar    0  <0>0        0.0280
      8  C12        4.9660   34.9340   57.0170 C.ar    0  <0>0        0.1366
      9  C13        4.0860   34.0790   56.3670 C.ar    0  <0>0        0.0465
     10  C14        3.1450   33.3640   57.0940 C.ar    0  <0>0        0.1474
     11  O2         2.1930   32.4810   56.7240 O.3     0  <0>0       -0.4504
     12  C15        4.1530   33.9280   54.8690 C.3     0  <0>0        0.0374
     13  O3         5.8830   35.6160   56.2820 O.3     0  <0>0       -0.4586
     14  C16        6.5170   36.7350   56.9070 C.3     0  <0>0        0.2850
     15  N1         6.9980   36.3210   58.2360 N.3     0  <0>0       -0.2292
     16  C17        5.8600   36.0120   59.1130 C.3     0  <0>0        0.1053
     17  C18        7.8550   37.3550   58.8310 C.3     0  <0>0        0.0836
     18  C19        8.5050   38.1800   57.7180 C.3     0  <0>0        0.0223
     19  C20        8.9270   36.7000   59.6630 C.ar    0  <0>0       -0.0077
     20  C25        9.5270   35.5340   59.2250 C.ar    0  <0>0       -0.0030
     21  C24       10.5130   34.9370   59.9860 C.ar    0  <0>0       -0.0003
     22  C23       10.8940   35.4990   61.1900 C.ar    0  <0>0       -0.0000
     23  C22       10.2900   36.6620   61.6310 C.ar    0  <0>0       -0.0003
     24  C21        9.3060   37.2620   60.8680 C.ar    0  <0>0       -0.0030
     25  C5         0.0530   30.5880   56.5160 C.ar    0  <0>0        0.0287
     26  C2         0.0370   29.2590   56.1020 C.ar    0  <0>0       -0.0152
     27  C1         0.5010   28.1350   56.9920 C.3     0  <0>0        0.0316
     28  C3        -0.4340   29.0390   54.8310 C.ar    0  <0>0        0.0032
     29  C4        -0.8360   30.0970   54.0840 C.ar    0  <0>0        0.0351
     30  S1        -0.5890   31.4270   55.0810 S.2     0  <0>0       -0.0867
@<TRIPOS>BOND
     1    29    28   ar
     2    29    30   ar
     3    28    26   ar
     4    12     9    1
     5    30    25   ar
     6    26    25   ar
     7    26    27    1
     8    13    14    1
     9    13     8    1
    10     9     8   ar
    11     9    10   ar
    12    25     1    1
    13    11    10    1
    14    11     2    1
    15    14    15    1
    16     8     7   ar
    17    10     5   ar
    18    18    17    1
    19     1     2    2
    20     2     3    1
    21    15    17    1
    22    15    16    1
    23     7    16    1
    24     7     6   ar
    25     5     3    1
    26     5     6   ar
    27    17    19    1
    28     3     4    2
    29    20    19   ar
    30    20    21   ar
    31    19    24   ar
    32    21    22   ar
    33    24    23   ar
    34    22    23   ar
