@<TRIPOS>MOLECULE
ZINC52907113_replica-1.pdb
 21 21 0 0 0
SMALL
GASTEIGER

@<TRIPOS>ATOM
      1  C5         6.8410   35.5490   58.9290 C.ar    0  <0>0        0.0503
      2  C6         5.7470   36.3300   59.2800 C.ar    0  <0>0        0.0146
      3  C7         4.4670   35.8860   59.0200 C.ar    0  <0>0        0.0021
      4  C8         4.2600   34.6610   58.4060 C.ar    0  <0>0        0.0115
      5  C9         5.3330   33.8710   58.0500 C.ar    0  <0>0        0.0605
      6  C10        6.6370   34.3090   58.3020 C.ar    0  <0>0        0.0435
      7 Cl          5.0650   32.3360   57.2830 Cl      0  <0>0       -0.0821
      8  N1         8.1300   35.9950   59.1910 N.pl3   0  <0>0       -0.3091
      9  C4         8.8450   36.7970   58.1950 C.3     0  <0>0        0.0907
     10  C3         8.2910   38.2240   58.1950 C.3     0  <0>0        0.0214
     11  C2         8.1840   38.7290   56.7550 C.3     0  <0>0        0.0018
     12  C1         7.1670   37.8780   55.9910 C.3     0  <0>0        0.0001
     13  C12        8.7740   35.6650   60.4640 C.3     0  <0>0        0.0728
     14  C13        8.5920   36.8240   61.4450 C.3     0  <0>0        0.0214
     15  C14       10.2680   35.4240   60.2320 C.3     0  <0>0        0.0197
     16  C15       10.9980   35.4110   61.5770 C.3     0  <0>0        0.0018
     17  C11        7.7870   33.4750   57.9180 C.2     0  <0>0        0.0801
     18  S1         8.3610   32.2650   58.9850 S.2     0  <0>0       -0.0351
     19  N2         8.3890   33.6640   56.7270 N.am    0  <0>0       -0.3517
     20  H14        8.1150   34.3980   56.1560 H       0  <0>0        0.1428
     21  H15        9.0970   33.0660   56.4410 H       0  <0>0        0.1428
@<TRIPOS>BOND
     1    12    11    1
     2    20    19    1
     3    21    19    1
     4    19    17    1
     5    11    10    1
     6     7     5    1
     7    17     6    1
     8    17    18    2
     9     5     6   ar
    10     5     4   ar
    11     9    10    1
    12     9     8    1
    13     6     1   ar
    14     4     3   ar
    15     1     8    1
    16     1     2   ar
    17     3     2   ar
    18     8    13    1
    19    15    13    1
    20    15    16    1
    21    13    14    1
