@<TRIPOS>MOLECULE
ZINC35560046_replica-1.pdb
 29 32 0 0 0
SMALL
GASTEIGER

@<TRIPOS>ATOM
      1  C11       -0.3600   29.8300   55.6190 C.3     0  <0>0        0.0548
      2  C10       -1.0580   29.1990   56.7960 C.ar    0  <0>0        0.0004
      3  C7        -0.6570   29.2980   58.2010 C.ar    0  <0>0        0.0130
      4  C6         0.3910   29.9340   58.8690 C.ar    0  <0>0        0.0012
      5  C8        -1.6020   28.5490   58.9280 C.ar    0  <0>0        0.0523
      6  C5         0.4910   29.8310   60.2280 C.ar    0  <0>0       -0.0002
      7  C4        -0.4400   29.0980   60.9510 C.ar    0  <0>0       -0.0028
      8  C3        -1.4830   28.4610   60.3110 C.ar    0  <0>0       -0.0066
      9  N1        -2.5020   28.0390   58.0200 N.ar    0  <0>0       -0.3525
     10  H1        -3.2650   27.4840   58.2440 H       0  <0>0        0.1660
     11  C9        -2.1580   28.4320   56.7540 C.ar    0  <0>0        0.0684
     12  C2        -2.4870   27.6700   61.1080 C.3     0  <0>0        0.0278
     13  C1        -2.5480   28.2140   62.5370 C.3     0  <0>0        0.0051
     14  C12       -0.7780   31.2980   55.5040 C.3     0  <0>0        0.0938
     15  C13        0.3270   32.1770   56.0300 C.2     0  <0>0        0.2231
     16  O1         1.4750   31.7820   56.0170 O.2     0  <0>0       -0.2751
     17  N2         0.0410   33.4010   56.5150 N.am    0  <0>0       -0.3059
     18  H14       -0.8760   33.7170   56.5260 H       0  <0>0        0.1494
     19  C14        1.1160   34.2560   57.0260 C.3     0  <0>0        0.0717
     20  C16        0.9120   35.7700   56.9480 C.3     0  <0>0        0.0213
     21  C15        0.8370   35.0570   58.3000 C.3     0  <0>0        0.0213
     22  C17       -0.7430   29.0990   54.3580 C.ar    0  <0>0       -0.0218
     23  C22       -0.1670   27.8760   54.0660 C.ar    0  <0>0       -0.0258
     24  C21       -0.5220   27.2040   52.9120 C.ar    0  <0>0       -0.0088
     25  C23        0.8420   27.2750   55.0090 C.3     0  <0>0        0.0307
     26  C20       -1.4450   27.7570   52.0450 C.ar    0  <0>0       -0.0222
     27  C19       -2.0170   28.9820   52.3340 C.ar    0  <0>0       -0.0046
     28  C24       -1.8290   27.0260   50.7840 C.3     0  <0>0        0.0310
     29  C18       -1.6660   29.6540   53.4900 C.ar    0  <0>0       -0.0046
@<TRIPOS>BOND
     1    28    26    1
     2    26    27   ar
     3    26    24   ar
     4    27    29   ar
     5    24    23   ar
     6    29    22   ar
     7    23    22   ar
     8    23    25    1
     9    22     1    1
    10    14     1    1
    11    14    15    1
    12     1     2    1
    13    16    15    2
    14    15    17   am
    15    17    18    1
    16    17    19    1
    17    11     2   ar
    18    11     9   ar
    19     2     3   ar
    20    20    19    1
    21    20    21    1
    22    19    21    1
    23     9    10    1
    24     9     5   ar
    25     3     4   ar
    26     3     5   ar
    27     4     6   ar
    28     5     8   ar
    29     6     7   ar
    30     8     7   ar
    31     8    12    1
    32    12    13    1
