@<TRIPOS>MOLECULE
ZINC29011298_replica-1.pdb
 26 27 0 0 0
SMALL
GASTEIGER

@<TRIPOS>ATOM
      1  N1         5.5380   35.7660   58.9370 N.am    0  <0>0       -0.3022
      2  C10        6.0290   36.6180   59.8590 C.2     0  <0>0        0.2227
      3  O2         5.4000   37.6090   60.1640 O.2     0  <0>0       -0.2751
      4  H11        6.1090   34.8670   58.6590 H       0  <0>0        0.1497
      5  C2         4.2450   36.0370   58.3040 C.3     0  <0>0        0.0942
      6  C1         4.3000   35.6210   56.8330 C.3     0  <0>0        0.0262
      7  C3         3.1680   35.2530   59.0070 C.ar    0  <0>0       -0.0021
      8  C8         3.5110   34.2060   59.8440 C.ar    0  <0>0        0.0301
      9  C7         2.5230   33.4840   60.4900 C.ar    0  <0>0        0.1736
     10  C6         1.1870   33.8090   60.2930 C.ar    0  <0>0        0.1659
     11  F1         2.8580   32.4620   61.3070 F       0  <0>0       -0.2010
     12  C5         0.8480   34.8620   59.4580 C.ar    0  <0>0        0.0390
     13  C4         1.8380   35.5790   58.8150 C.ar    0  <0>0        0.0006
     14  O1         0.2140   33.0980   60.9230 O.3     0  <0>0       -0.4692
     15  C9        -0.2200   33.5800   62.1960 C.3     0  <0>0        0.2526
     16  C11        7.3590   36.3400   60.5100 C.3     0  <0>0        0.0856
     17  C12        8.4740   36.9940   59.6920 C.3     0  <0>0        0.0194
     18  C17        9.6710   37.2830   60.6020 C.3     0  <0>0        0.0010
     19  C16       10.1810   35.9730   61.2040 C.3     0  <0>0        0.0000
     20  C15       10.6110   35.0280   60.0800 C.3     0  <0>0        0.0000
     21  C14        9.4150   34.7390   59.1710 C.3     0  <0>0        0.0000
     22  C13        8.9050   36.0490   58.5680 C.3     0  <0>0        0.0010
     23  C18        7.9640   38.3040   59.0900 C.3     0  <0>0        0.1145
     24  C19        8.0850   38.2490   57.5890 C.2     0  <0>0        0.3649
     25  O3         9.0470   38.7370   57.0420 O.co2   0  <0>0       -0.2457
     26  O4         7.1270   37.6570   56.8580 O.co2   0  <0>0       -0.2457
@<TRIPOS>BOND
     1     6     5    1
     2    26    24   ar
     3    25    24   ar
     4    24    23    1
     5     5     1    1
     6     5     7    1
     7    22    21    1
     8    22    17    1
     9     4     1    1
    10    13     7   ar
    11    13    12   ar
    12     1     2   am
    13     7     8   ar
    14    23    17    1
    15    21    20    1
    16    12    10   ar
    17    17    16    1
    18    17    18    1
    19     8     9   ar
    20     2     3    2
    21     2    16    1
    22    20    19    1
    23    10     9   ar
    24    10    14    1
    25     9    11    1
    26    18    19    1
    27    14    15    1
