@<TRIPOS>MOLECULE
ZINC23242289_replica-1.pdb
 29 31 0 0 0
SMALL
GASTEIGER

@<TRIPOS>ATOM
      1  C10        1.8970   32.7430   56.7050 C.2     0  <0>0        0.1265
      2  C11        1.2110   33.8630   57.0750 C.3     0  <0>0        0.1910
      3  C12        1.6940   35.1200   56.6730 C.1     0  <0>0        0.1980
      4  O2         1.1060   36.1420   56.9850 O.2     0  <0>0       -0.2130
      5  N2         2.8250   35.1750   55.9370 N.2     0  <0>0       -0.2640
      6  C13        3.4650   34.0240   55.5930 C.1     0  <0>0        0.1787
      7  N3         3.0050   32.8480   55.9750 N.2     0  <0>0       -0.3415
      8  C9         1.4000   31.3830   57.1240 C.3     0  <0>0        0.1414
      9  C8         0.2050   31.0050   56.2880 C.2     0  <0>0        0.2296
     10  N1         0.3640   30.6950   54.9870 N.am    0  <0>0       -0.3001
     11  H7         1.3670   30.7180   54.5340 H       0  <0>0        0.1498
     12  O1        -0.9000   30.9780   56.7870 O.2     0  <0>0       -0.2746
     13  C7        -0.7980   30.3260   54.1730 C.3     0  <0>0        0.1163
     14  C6        -0.6500   28.9030   53.7010 C.ar    0  <0>0       -0.0024
     15  C1        -1.2960   28.4850   52.5530 C.ar    0  <0>0       -0.0003
     16  C2        -1.1570   27.1810   52.1170 C.ar    0  <0>0        0.0294
     17  C3        -0.3780   26.2910   52.8360 C.ar    0  <0>0        0.1401
     18  C4         0.2650   26.7090   53.9880 C.ar    0  <0>0        0.0294
     19  F2        -0.2450   25.0140   52.4120 F       0  <0>0       -0.2042
     20  C5         0.1290   28.0150   54.4200 C.ar    0  <0>0       -0.0003
     21  S1         4.9330   34.1060   54.6210 S.3     0  <0>0       -0.0127
     22  C14        6.1760   33.8180   55.9050 C.3     0  <0>0        0.1006
     23  C15        6.9380   35.0930   56.1610 C.ar    0  <0>0       -0.0101
     24  C20        7.7510   35.2000   57.2740 C.ar    0  <0>0       -0.0011
     25  C19        8.4500   36.3690   57.5090 C.ar    0  <0>0        0.0293
     26  C18        8.3350   37.4320   56.6290 C.ar    0  <0>0        0.1401
     27  C17        7.5220   37.3230   55.5150 C.ar    0  <0>0        0.0293
     28  F1         9.0190   38.5750   56.8590 F       0  <0>0       -0.2042
     29  C16        6.8240   36.1540   55.2810 C.ar    0  <0>0       -0.0011
@<TRIPOS>BOND
     1    16    15   ar
     2    16    17   ar
     3    19    17    1
     4    15    14   ar
     5    17    18   ar
     6    14    13    1
     7    14    20   ar
     8    18    20   ar
     9    13    10    1
    10    11    10    1
    11    21     6    1
    12    21    22    1
    13    10     9   am
    14    29    27   ar
    15    29    23   ar
    16    27    26   ar
    17     6     5    2
    18     6     7    2
    19    22    23    1
    20     5     3    2
    21     7     1    2
    22    23    24   ar
    23     9    12    2
    24     9     8    1
    25    26    28    1
    26    26    25   ar
    27     3     4    2
    28     3     2    1
    29     1     2    1
    30     1     8    1
    31    24    25   ar
