@<TRIPOS>MOLECULE
ZINC41650211_replica-1.pdb
 22 23 0 0 0
SMALL
GASTEIGER

@<TRIPOS>ATOM
      1  C3        12.1280   32.6890   62.9200 C.ar    0  <0>0        0.1403
      2  C4        12.5820   33.9720   62.6500 C.ar    0  <0>0        0.0383
      3  C5        11.9010   34.7710   61.7520 C.ar    0  <0>0        0.0191
      4  C6        10.7630   34.2890   61.1190 C.ar    0  <0>0        0.0675
      5  C7        10.3100   33.0050   61.3890 C.ar    0  <0>0        0.1589
      6  C8        10.9940   32.2050   62.2840 C.ar    0  <0>0        0.0622
      7  N2        10.0730   35.0980   60.2090 N.pl3   0  <0>0       -0.3327
      8  H10       10.3750   35.1600   59.2900 H       0  <0>0        0.1468
      9  C9         8.8960   35.8510   60.6470 C.3     0  <0>0        0.0691
     10  C10        9.3110   36.8850   61.6960 C.3     0  <0>0        0.0212
     11  C11        8.2720   36.5660   59.4460 C.3     0  <0>0        0.0179
     12  C16        8.5170   38.0720   59.5640 C.3     0  <0>0        0.0016
     13  C15        7.8940   38.7860   58.3630 C.3     0  <0>0        0.0001
     14  C14        8.5330   38.2660   57.0730 C.3     0  <0>0        0.0000
     15  C13        8.2880   36.7600   56.9550 C.3     0  <0>0        0.0001
     16  C12        8.9110   36.0460   58.1560 C.3     0  <0>0        0.0016
     17  N1         9.0960   32.4900   60.7160 N.pl3   0  <0>0        0.0590
     18  O2         8.9760   32.6050   59.5190 O.2     0  <0>0       -0.1261
     19  O3         8.2270   31.9550   61.3630 O.2     0  <0>0       -0.1261
     20  O1        12.8000   31.9030   63.8040 O.3     0  <0>0       -0.4754
     21  C2        12.9680   30.5280   63.4510 C.3     0  <0>0        0.2055
     22  C1        12.3410   29.6450   64.5320 C.3     0  <0>0        0.0512
@<TRIPOS>BOND
     1    15    14    1
     2    15    16    1
     3    14    13    1
     4    16    11    1
     5    13    12    1
     6     8     7    1
     7    11    12    1
     8    11     9    1
     9    18    17    2
    10     7     9    1
    11     7     4    1
    12     9    10    1
    13    17    19    2
    14    17     5    1
    15     4     5   ar
    16     4     3   ar
    17     5     6   ar
    18     3     2   ar
    19     6     1   ar
    20     2     1   ar
    21     1    20    1
    22    21    20    1
    23    21    22    1
