@<TRIPOS>MOLECULE
ZINC06819679_replica-1.pdb
 28 31 0 0 0
SMALL
GASTEIGER

@<TRIPOS>ATOM
      1  C8         7.7090   36.8950   58.9800 C.3     0  <0>0        0.0573
      2  C9         8.0140   36.9500   57.4790 C.3     0  <0>0        0.0942
      3  C10        8.4590   35.5860   57.0200 C.2     0  <0>0        0.2265
      4  O1         8.1770   35.2010   55.9050 O.2     0  <0>0       -0.2748
      5  N1         9.1730   34.7980   57.8420 N.am    0  <0>0       -0.2875
      6  C11        9.5280   35.2180   59.0980 C.2     0  <0>0        0.0268
      7  C12        8.8570   36.2240   59.6970 C.2     0  <0>0        0.0261
      8  C13        9.2000   36.6660   60.9860 C.2     0  <0>0        0.1706
      9  O2         8.5800   37.5830   61.4880 O.2     0  <0>0       -0.2916
     10  C14       10.3230   36.0230   61.7530 C.3     0  <0>0        0.0736
     11  C15       10.4610   34.5650   61.3040 C.3     0  <0>0        0.0356
     12  C16       10.6830   34.5390   59.7910 C.3     0  <0>0        0.0458
     13  H12        9.4410   33.9150   57.5410 H       0  <0>0        0.1545
     14  C17       11.6370   33.9280   61.9990 C.ar    0  <0>0       -0.0215
     15  C22       12.8660   34.5610   61.9990 C.ar    0  <0>0       -0.0011
     16  C21       13.9450   33.9790   62.6370 C.ar    0  <0>0        0.0366
     17  C20       13.7940   32.7570   63.2760 C.ar    0  <0>0        0.1387
     18  C19       12.5600   32.1240   63.2750 C.ar    0  <0>0        0.0366
     19  C18       11.4830   32.7130   62.6420 C.ar    0  <0>0       -0.0011
     20  O3        14.8540   32.1830   63.9040 O.3     0  <0>0       -0.4714
     21  C23       15.5200   32.9640   64.8980 C.3     0  <0>0        0.2525
     22  C6         6.4440   36.1120   59.2120 C.ar    0  <0>0       -0.0181
     23  C5         6.4040   35.1340   60.1880 C.ar    0  <0>0       -0.0040
     24  C4         5.2420   34.4150   60.4000 C.ar    0  <0>0       -0.0006
     25  C3         4.1190   34.6760   59.6380 C.ar    0  <0>0       -0.0043
     26  C2         4.1580   35.6560   58.6630 C.ar    0  <0>0       -0.0222
     27  C1         2.9330   35.9400   57.8320 C.3     0  <0>0        0.0310
     28  C7         5.3180   36.3770   58.4530 C.ar    0  <0>0       -0.0082
@<TRIPOS>BOND
     1     4     3    2
     2     3     2    1
     3     3     5   am
     4     2     1    1
     5    13     5    1
     6    27    26    1
     7     5     6    1
     8    28    26   ar
     9    28    22   ar
    10    26    25   ar
    11     1    22    1
    12     1     7    1
    13     6     7    2
    14     6    12    1
    15    22    23   ar
    16    25    24   ar
    17     7     8    1
    18    12    11    1
    19    23    24   ar
    20     8     9    2
    21     8    10    1
    22    11    10    1
    23    11    14    1
    24    15    14   ar
    25    15    16   ar
    26    14    19   ar
    27    16    17   ar
    28    19    18   ar
    29    18    17   ar
    30    17    20    1
    31    20    21    1
