@<TRIPOS>MOLECULE
ZINC20559121_replica-1.pdb
 18 18 0 0 0
SMALL
GASTEIGER

@<TRIPOS>ATOM
      1  C5        -0.3450   27.9910   56.4150 C.3     0  <0>0        0.0691
      2  C4        -0.2780   29.4070   56.9890 C.3     0  <0>0        0.0195
      3  C2        -1.6140   30.1170   56.7570 C.3     0  <0>0        0.0016
      4  C1        -1.4750   31.0970   55.5910 C.3     0  <0>0        0.0001
      5  C3        -2.6910   29.0820   56.4280 C.3     0  <0>0        0.0001
      6  C6         0.1510   26.9920   57.4620 C.3     0  <0>0        0.0195
      7  C7        -0.8590   25.8500   57.5970 C.3     0  <0>0        0.0016
      8  C8        -0.1200   24.5530   57.9310 C.3     0  <0>0        0.0001
      9  C9        -1.8500   26.1760   58.7160 C.3     0  <0>0        0.0001
     10  N1         0.4990   27.9070   55.2220 N.pl3   0  <0>0       -0.3323
     11  H20        1.5420   28.2540   55.2600 H       0  <0>0        0.1468
     12  C10       -0.0210   27.3860   54.0330 C.ar    0  <0>0        0.0724
     13  C15        0.2030   26.0530   53.6990 C.ar    0  <0>0        0.1531
     14  C14       -0.3130   25.5420   52.5230 C.ar    0  <0>0        0.0309
     15  F1         0.9240   25.2620   54.5220 F       0  <0>0       -0.2029
     16  C13       -1.0520   26.3530   51.6800 C.ar    0  <0>0        0.0024
     17  C12       -1.2770   27.6760   52.0100 C.ar    0  <0>0        0.0014
     18  C11       -0.7670   28.1930   53.1860 C.ar    0  <0>0        0.0166
@<TRIPOS>BOND
     1    16    17   ar
     2    16    14   ar
     3    17    18   ar
     4    14    13   ar
     5    18    12   ar
     6    13    12   ar
     7    13    15    1
     8    12    10    1
     9    10    11    1
    10    10     1    1
    11     4     3    1
    12     1     2    1
    13     1     6    1
    14     5     3    1
    15     3     2    1
    16     6     7    1
    17     7     8    1
    18     7     9    1
