@<TRIPOS>MOLECULE
ZINC00273821_replica-1.pdb
 24 27 0 0 0
SMALL
GASTEIGER

@<TRIPOS>ATOM
      1  C10       -0.1310   29.4150   55.1430 C.ar    0  <0>0        0.1116
      2  C11        0.2660   28.0940   55.0590 C.ar    0  <0>0        0.0126
      3  C12       -0.1410   27.3290   53.9360 C.ar    0  <0>0        0.0352
      4  C13        0.2460   25.9850   53.8200 C.ar    0  <0>0        0.0061
      5  C14       -0.1470   25.2540   52.7400 C.ar    0  <0>0        0.0368
      6  C15       -0.9330   25.8320   51.7440 C.ar    0  <0>0        0.1367
      7  C16       -1.3250   27.1570   51.8400 C.ar    0  <0>0        0.0742
      8  C17       -0.9340   27.9190   52.9340 C.ar    0  <0>0        0.1517
      9  O1        -1.3170   29.2100   53.0250 O.2     0  <0>0       -0.4209
     10  C18       -0.9570   29.9760   54.0680 C.ar    0  <0>0        0.3487
     11  O2        -1.3170   31.1370   54.1230 O.2     0  <0>0       -0.2444
     12  C9         0.2710   30.2460   56.2930 C.2     0  <0>0        0.1632
     13  S1         0.2540   29.8520   58.0360 S.3     0  <0>0       -0.0746
     14  C8         0.8910   31.4150   58.6250 C.3     0  <0>0        0.1233
     15  C7         1.0490   32.0870   57.4420 C.2     0  <0>0        0.1208
     16  N1         0.7360   31.4870   56.3080 N.2     0  <0>0       -0.3989
     17  C4         1.5680   33.4770   57.4340 C.ar    0  <0>0        0.0263
     18  C3         2.3890   33.9110   56.3950 C.ar    0  <0>0        0.0022
     19  C2         2.8700   35.2050   56.3930 C.ar    0  <0>0        0.0001
     20  C1         2.5370   36.0700   57.4210 C.ar    0  <0>0        0.0000
     21  C6         1.7230   35.6450   58.4540 C.ar    0  <0>0        0.0001
     22  C5         1.2320   34.3550   58.4630 C.ar    0  <0>0        0.0022
     23  O3        -1.3220   25.0910   50.6770 O.3     0  <0>0       -0.5054
     24  H11       -0.6390   24.9880   49.9990 H       0  <0>0        0.2922
@<TRIPOS>BOND
     1    24    23    1
     2    23     6    1
     3     6     7   ar
     4     6     5   ar
     5     7     8   ar
     6     5     4   ar
     7     8     9   ar
     8     8     3   ar
     9     9    10   ar
    10     4     3   ar
    11     3     2   ar
    12    10    11    2
    13    10     1   ar
    14     2     1   ar
    15     1    12    1
    16    12    16    2
    17    12    13    1
    18    16    15    2
    19    19    18   ar
    20    19    20   ar
    21    18    17   ar
    22    20    21   ar
    23    17    15    1
    24    17    22   ar
    25    15    14    1
    26    13    14    1
    27    21    22   ar
