@<TRIPOS>MOLECULE
ZINC39550629_replica-1.pdb
 34 39 0 0 0
SMALL
GASTEIGER

@<TRIPOS>ATOM
      1  C7         0.9420   32.1470   57.6810 C.2     0  <0>0        0.1325
      2  C8         1.8810   32.5550   56.7480 C.3     0  <0>0        0.1469
      3  N1         1.5390   31.9460   55.5630 N.pl3   0  <0>0       -0.3008
      4  H1         2.0040   32.0310   54.7160 H       0  <0>0        0.1498
      5  C9         0.4220   31.1970   55.8010 C.2     0  <0>0        0.1802
      6  N2         0.0810   31.3220   57.0630 N.2     0  <0>0       -0.3895
      7  C16        3.0220   33.4610   56.9790 C.ar    0  <0>0        0.0029
      8  C21        4.3190   32.9510   57.0720 C.ar    0  <0>0        0.0073
      9  C20        5.3830   33.8090   57.2850 C.ar    0  <0>0        0.0638
     10  C19        5.1760   35.1830   57.4060 C.ar    0  <0>0        0.1512
     11  S1         7.0160   33.1570   57.4260 S.3     0  <0>0       -0.0808
     12  C18        3.8790   35.6820   57.3190 C.ar    0  <0>0        0.0378
     13  O2         6.1900   36.0500   57.5960 O.3     0  <0>0       -0.4525
     14  C17        2.8120   34.8360   57.1100 C.ar    0  <0>0        0.0009
     15  C27        7.3670   35.7610   58.1850 C.ar    0  <0>0        0.1512
     16  C22        7.9050   34.4770   58.1850 C.ar    0  <0>0        0.0640
     17  C26        8.0760   36.7870   58.7990 C.ar    0  <0>0        0.0380
     18  C23        9.1330   34.2290   58.7810 C.ar    0  <0>0        0.0095
     19  C24        9.8290   35.2600   59.3850 C.ar    0  <0>0        0.0007
     20  C25        9.2970   36.5360   59.3930 C.ar    0  <0>0        0.0032
     21  C4         0.8990   32.5450   59.1070 C.ar    0  <0>0        0.0274
     22  C3         0.3660   33.7800   59.4750 C.ar    0  <0>0        0.0023
     23  C2         0.3290   34.1450   60.8050 C.ar    0  <0>0        0.0001
     24  C1         0.8200   33.2870   61.7740 C.ar    0  <0>0        0.0000
     25  C6         1.3500   32.0610   61.4160 C.ar    0  <0>0        0.0001
     26  C5         1.3920   31.6860   60.0890 C.ar    0  <0>0        0.0023
     27  C10       -0.2890   30.3740   54.7990 C.ar    0  <0>0        0.0467
     28  C15       -1.3790   30.9010   54.1060 C.ar    0  <0>0        0.0405
     29  C14       -2.0360   30.1250   53.1650 C.ar    0  <0>0        0.1338
     30  C13       -1.6180   28.8240   52.9230 C.ar    0  <0>0        0.0366
     31  C12       -0.5420   28.2970   53.6140 C.ar    0  <0>0        0.0032
     32  C11        0.1240   29.0630   54.5500 C.ar    0  <0>0        0.0040
     33  O1        -3.0940   30.6370   52.4820 O.3     0  <0>0       -0.5055
     34  H11       -3.9430   30.5190   52.9280 H       0  <0>0        0.2922
@<TRIPOS>BOND
     1    33    34    1
     2    33    29    1
     3    30    29   ar
     4    30    31   ar
     5    29    28   ar
     6    31    32   ar
     7    28    27   ar
     8    32    27   ar
     9     4     3    1
    10    27     5    1
    11     3     5    1
    12     3     2    1
    13     5     6    2
    14     2     7    1
    15     2     1    1
    16     7     8   ar
    17     7    14   ar
    18     6     1    2
    19     8     9   ar
    20    14    12   ar
    21     9    10   ar
    22     9    11    1
    23    12    10   ar
    24    10    13    1
    25    11    16    1
    26    13    15    1
    27     1    21    1
    28    16    15   ar
    29    16    18   ar
    30    15    17   ar
    31    18    19   ar
    32    17    20   ar
    33    21    22   ar
    34    21    26   ar
    35    19    20   ar
    36    22    23   ar
    37    26    25   ar
    38    23    24   ar
    39    25    24   ar
