@<TRIPOS>MOLECULE
ZINC52255591_replica-1.pdb
 21 21 0 0 0
SMALL
GASTEIGER

@<TRIPOS>ATOM
      1  C5         8.1570   37.1760   58.7690 C.3     0  <0>0        0.1432
      2  C4         7.1050   36.1650   58.3080 C.3     0  <0>0        0.1300
      3  C3         7.0180   36.1800   56.8040 C.2     0  <0>0        0.3192
      4  O2         6.2890   36.9670   56.2490 O.2     0  <0>0       -0.2500
      5  O1         7.7510   35.3190   56.0800 O.3     0  <0>0       -0.4484
      6  C2         7.6560   33.9360   56.4260 C.3     0  <0>0        0.2086
      7  C1         6.3480   33.3620   55.8770 C.3     0  <0>0        0.0513
      8  C15        5.7440   36.5380   58.9010 C.3     0  <0>0        0.0133
      9  C16        5.0300   35.2720   59.3750 C.3     0  <0>0        0.0007
     10  C17        5.9480   37.4840   60.0870 C.3     0  <0>0        0.0007
     11  C6         9.1810   36.4780   59.6280 C.ar    0  <0>0        0.0048
     12  C11        9.6870   35.2520   59.2420 C.ar    0  <0>0       -0.0023
     13  C10       10.6290   34.6140   60.0270 C.ar    0  <0>0       -0.0045
     14  C9        11.0570   35.1990   61.2050 C.ar    0  <0>0       -0.0225
     15  C8        10.5450   36.4240   61.5940 C.ar    0  <0>0       -0.0045
     16  C7         9.6070   37.0630   60.8060 C.ar    0  <0>0       -0.0023
     17  C12       12.0800   34.5030   62.0640 C.3     0  <0>0        0.0224
     18  C13       12.3100   35.3120   63.3420 C.3     0  <0>0        0.0047
     19  C14       11.5740   33.1060   62.4290 C.3     0  <0>0        0.0047
     20  O3         8.8020   37.7450   57.6280 O.3     0  <0>0       -0.3795
     21  H19        8.9750   38.6930   57.7060 H       0  <0>0        0.2108
@<TRIPOS>BOND
     1     7     6    1
     2     5     6    1
     3     5     3    1
     4     4     3    2
     5     3     2    1
     6    20    21    1
     7    20     1    1
     8     2     1    1
     9     2     8    1
    10     1    11    1
    11     8     9    1
    12     8    10    1
    13    12    11   ar
    14    12    13   ar
    15    11    16   ar
    16    13    14   ar
    17    16    15   ar
    18    14    15   ar
    19    14    17    1
    20    17    19    1
    21    17    18    1
