@<TRIPOS>MOLECULE
ZINC01646196_replica-1.pdb
 28 33 0 0 0
SMALL
GASTEIGER

@<TRIPOS>ATOM
      1  C3         8.4040   35.2760   58.8100 C.ar    0  <0>0        0.0672
      2  C4         7.1570   35.8700   59.0270 C.ar    0  <0>0       -0.0202
      3  C5         6.9170   36.5460   60.2050 C.ar    0  <0>0       -0.0263
      4  C6         7.9120   36.6370   61.1660 C.ar    0  <0>0       -0.0091
      5  C7         9.1480   36.0540   60.9580 C.ar    0  <0>0       -0.0258
      6  C8         9.4000   35.3710   59.7830 C.ar    0  <0>0       -0.0198
      7  C9        10.8210   34.8300   59.8070 C.3     0  <0>0        0.0341
      8  C10       11.1650   34.7980   61.3060 C.3     0  <0>0        0.0676
      9  C11       10.3870   36.0140   61.8390 C.3     0  <0>0        0.0339
     10  C12       12.6620   34.9300   61.5470 C.3     0  <0>0        0.0343
     11  C13       13.0580   33.7080   62.3460 C.ar    0  <0>0       -0.0193
     12  C14       14.2860   33.3110   62.8360 C.ar    0  <0>0       -0.0045
     13  C15       14.4050   32.1350   63.5510 C.ar    0  <0>0       -0.0049
     14  C16       13.2930   31.3380   63.7830 C.ar    0  <0>0       -0.0261
     15  C17       12.0610   31.7190   63.2990 C.ar    0  <0>0       -0.0237
     16  C18       11.9310   32.9130   62.5710 C.ar    0  <0>0        0.0265
     17  C19       10.7340   33.5220   61.9590 C.2     0  <0>0        0.1725
     18  O3         9.6090   33.0720   61.9800 O.2     0  <0>0       -0.2914
     19  C20       11.0180   30.6920   63.6810 C.3     0  <0>0        0.0265
     20  C21       11.8160   29.4310   64.0740 C.3     0  <0>0        0.0093
     21  C22       13.1670   30.0260   64.5290 C.3     0  <0>0        0.0264
     22  C23        5.5060   37.0940   60.2020 C.3     0  <0>0        0.0264
     23  C24        4.7710   36.3130   59.0920 C.3     0  <0>0        0.0093
     24  C25        5.9260   35.9150   58.1490 C.3     0  <0>0        0.0266
     25  C2         8.6680   34.5490   57.5520 C.2     0  <0>0        0.3407
     26  O2         8.9740   35.1630   56.5490 O.2     0  <0>0       -0.2449
     27  O1         8.5700   33.2070   57.5160 O.3     0  <0>0       -0.4413
     28  C1         7.7160   32.6350   56.4900 C.3     0  <0>0        0.2560
@<TRIPOS>BOND
     1    28    27    1
     2    26    25    2
     3    27    25    1
     4    25     1    1
     5    24     2    1
     6    24    23    1
     7     1     2   ar
     8     1     6   ar
     9     2     3   ar
    10    23    22    1
    11     6     7    1
    12     6     5   ar
    13     7     8    1
    14    22     3    1
    15     3     4   ar
    16     5     4   ar
    17     5     9    1
    18     8    10    1
    19     8     9    1
    20     8    17    1
    21    10    11    1
    22    17    18    2
    23    17    16    1
    24    11    16   ar
    25    11    12   ar
    26    16    15   ar
    27    12    13   ar
    28    15    19    1
    29    15    14   ar
    30    13    14   ar
    31    19    20    1
    32    14    21    1
    33    20    21    1
