@<TRIPOS>MOLECULE
ZINC57694348_replica-1.pdb
 22 23 0 0 0
SMALL
GASTEIGER

@<TRIPOS>ATOM
      1  C10        9.5570   34.7090   59.1480 C.3     0  <0>0        0.1173
      2  C11        8.6420   33.6670   58.6560 C.1     0  <0>0        0.0767
      3  N1         7.9360   32.8620   58.2770 N.1     0  <0>0       -0.1956
      4  C9         9.5880   34.6810   60.6770 C.3     0  <0>0        0.0669
      5  C8        10.3700   33.4540   61.1500 C.3     0  <0>0        0.2069
      6  O1        10.9610   33.7270   62.4220 O.3     0  <0>0       -0.4746
      7  C6        11.8510   32.8150   62.8960 C.ar    0  <0>0        0.1487
      8  C5        13.2090   33.1040   62.8950 C.ar    0  <0>0        0.0915
      9  C4        14.1120   32.1750   63.3770 C.ar    0  <0>0        0.0141
     10 Cl         13.7730   34.6290   62.2880 Cl      0  <0>0       -0.0791
     11  C3        13.6640   30.9600   63.8610 C.ar    0  <0>0       -0.0032
     12  C2        12.3110   30.6710   63.8640 C.ar    0  <0>0       -0.0188
     13  C1        11.8260   29.3450   64.3930 C.3     0  <0>0        0.0311
     14  C7        11.4050   31.5930   63.3780 C.ar    0  <0>0        0.0335
     15  C12        9.0790   36.0590   58.6790 C.ar    0  <0>0       -0.0053
     16  C17        8.6480   36.2250   57.3780 C.ar    0  <0>0        0.0336
     17  C16        8.2010   37.4670   56.9490 C.ar    0  <0>0        0.1385
     18  C15        8.2010   38.5420   57.8250 C.ar    0  <0>0        0.0369
     19  C14        8.6380   38.3720   59.1260 C.ar    0  <0>0        0.0028
     20  C13        9.0770   37.1320   59.5520 C.ar    0  <0>0       -0.0031
     21  O2         7.7720   37.6320   55.6700 O.3     0  <0>0       -0.4714
     22  C18        7.3760   36.4560   54.9620 C.3     0  <0>0        0.2525
@<TRIPOS>BOND
     1    22    21    1
     2    21    17    1
     3    17    16   ar
     4    17    18   ar
     5    16    15   ar
     6    18    19   ar
     7     3     2    3
     8     2     1    1
     9    15     1    1
    10    15    20   ar
    11    19    20   ar
    12     1     4    1
    13     4     5    1
    14     5     6    1
    15    10     8    1
    16     6     7    1
    17     8     7   ar
    18     8     9   ar
    19     7    14   ar
    20     9    11   ar
    21    14    12   ar
    22    11    12   ar
    23    12    13    1
