@<TRIPOS>MOLECULE
ZINC32126565_replica-1.pdb
 22 24 0 0 0
SMALL
GASTEIGER

@<TRIPOS>ATOM
      1  C7        -0.9560   29.8660   55.2580 C.2     0  <0>0        0.2175
      2  N3        -0.5450   28.6680   54.9190 N.2     0  <0>0       -0.3790
      3  C8        -0.8400   28.1090   53.7240 C.2     0  <0>0        0.1503
      4  C9        -1.6130   28.9080   52.8500 C.2     0  <0>0        0.0596
      5  S1        -1.8620   30.3840   53.8060 S.3     0  <0>0       -0.0376
      6  C10       -1.9890   28.4850   51.5990 C.2     0  <0>0       -0.0113
      7  C11       -1.6060   27.2330   51.1560 C.3     0  <0>0        0.0655
      8  C12       -0.8470   26.4210   51.9870 C.2     0  <0>0        0.0528
      9  C13       -0.4660   26.8340   53.2400 C.2     0  <0>0        0.0945
     10 Cl          0.4830   25.7800   54.2400 Cl      0  <0>0       -0.0790
     11 Cl         -0.3660   24.8480   51.4300 Cl      0  <0>0       -0.0856
     12  N2        -0.7380   30.5580   56.4370 N.am    0  <0>0       -0.2506
     13  C6         0.2900   31.4260   56.5280 C.2     0  <0>0        0.2540
     14  O1         1.0240   31.6010   55.5750 O.2     0  <0>0       -0.2697
     15  H4        -1.4020   30.4010   57.2990 H       0  <0>0        0.1580
     16  C3         0.5240   32.1640   57.7860 C.ar    0  <0>0        0.0822
     17  C2         0.1450   33.5060   57.9040 C.ar    0  <0>0        0.0085
     18  C1         0.3820   34.1520   59.1060 C.ar    0  <0>0        0.0209
     19  C5         0.9890   33.4600   60.1380 C.ar    0  <0>0        0.0998
     20  N1         1.3370   32.1950   59.9990 N.ar    0  <0>0       -0.2323
     21  C4         1.1280   31.5350   58.8780 C.ar    0  <0>0        0.1427
     22 Cl          1.6070   29.8700   58.7570 Cl      0  <0>0       -0.0612
@<TRIPOS>BOND
     1     7     6    1
     2     7     8    1
     3    11     8    1
     4     6     4    2
     5     8     9    2
     6     4     3    1
     7     4     5    1
     8     9     3    1
     9     9    10    1
    10     3     2    2
    11     5     1    1
    12     2     1    2
    13     1    12    1
    14    14    13    2
    15    12    13   am
    16    12    15    1
    17    13    16    1
    18    16    17   ar
    19    16    21   ar
    20    17    18   ar
    21    22    21    1
    22    21    20   ar
    23    18    19   ar
    24    20    19   ar
