@<TRIPOS>MOLECULE
ZINC06054778_replica-1.pdb
 28 30 0 0 0
SMALL
GASTEIGER

@<TRIPOS>ATOM
      1  C11        5.3570   34.9030   55.1650 C.3     0  <0>0        0.2300
      2  C12        4.7130   34.6740   53.7960 C.3     0  <0>0        0.0560
      3  C10        4.7410   33.9660   56.1730 C.2     0  <0>0        0.2139
      4  O1         3.7360   33.3470   55.8910 O.2     0  <0>0       -0.2875
      5  C3         5.3350   33.8080   57.4490 C.ar    0  <0>0        0.0511
      6  C2         5.9620   32.6800   57.9370 C.ar    0  <0>0        0.0368
      7  C1         6.1310   31.3870   57.1830 C.3     0  <0>0        0.0499
      8  N1         6.4000   32.9130   59.1880 N.ar    0  <0>0       -0.3563
      9  C9         6.0860   34.1970   59.5850 C.ar    0  <0>0        0.0565
     10  H1         6.8710   32.2660   59.7370 H       0  <0>0        0.1656
     11  C4         5.4150   34.8190   58.5220 C.ar    0  <0>0        0.0195
     12  C8         6.3110   34.9100   60.7590 C.ar    0  <0>0        0.0170
     13  C5         4.9700   36.1310   58.6470 C.ar    0  <0>0        0.0016
     14  C6         5.2010   36.8210   59.8180 C.ar    0  <0>0        0.0001
     15  C7         5.8700   36.2110   60.8680 C.ar    0  <0>0        0.0015
     16  O2         6.7610   34.6520   55.0780 O.3     0  <0>0       -0.4412
     17  C13        7.5860   35.6330   55.4990 C.2     0  <0>0        0.3417
     18  O3         7.6770   36.6660   54.8630 O.2     0  <0>0       -0.2449
     19  C14        8.3480   35.4610   56.6820 C.2     0  <0>0        0.0819
     20  C15        8.3550   36.4250   57.6280 C.2     0  <0>0        0.0067
     21  C16        9.1390   36.2430   58.8570 C.ar    0  <0>0        0.0004
     22  C21        9.1850   37.2600   59.8180 C.ar    0  <0>0        0.0031
     23  C20        9.9210   37.0850   60.9680 C.ar    0  <0>0        0.0369
     24  C19       10.6180   35.9010   61.1760 C.ar    0  <0>0        0.1387
     25  C18       10.5760   34.8870   60.2250 C.ar    0  <0>0        0.0369
     26  C17        9.8380   35.0510   59.0740 C.ar    0  <0>0        0.0031
     27  O4        11.3430   35.7330   62.3110 O.3     0  <0>0       -0.4714
     28  C22       12.3520   34.7220   62.2930 C.3     0  <0>0        0.2525
@<TRIPOS>BOND
     1     2     1    1
     2    18    17    2
     3    16     1    1
     4    16    17    1
     5     1     3    1
     6    17    19    1
     7     4     3    2
     8     3     5    1
     9    19    20    2
    10     7     6    1
    11     5     6   ar
    12     5    11   ar
    13    20    21    1
    14     6     8   ar
    15    11    13   ar
    16    11     9   ar
    17    13    14   ar
    18    21    26   ar
    19    21    22   ar
    20    26    25   ar
    21     8     9   ar
    22     8    10    1
    23     9    12   ar
    24    14    15   ar
    25    22    23   ar
    26    25    24   ar
    27    12    15   ar
    28    23    24   ar
    29    24    27    1
    30    28    27    1
