@<TRIPOS>MOLECULE
ZINC37019483_replica-1.pdb
 22 23 0 0 0
SMALL
GASTEIGER

@<TRIPOS>ATOM
      1  C10        9.8550   36.6830   60.5240 C.ar    0  <0>0        0.0642
      2  C11       10.0150   35.4740   59.8490 C.ar    0  <0>0        0.0190
      3  C12       10.8160   34.5020   60.4190 C.ar    0  <0>0        0.0401
      4  C13       11.4320   34.7600   61.6380 C.ar    0  <0>0        0.1639
      5  N2        11.2590   35.9190   62.2520 N.ar    0  <0>0       -0.2237
      6  C14       10.5070   36.8720   61.7350 C.ar    0  <0>0        0.1148
      7  N1         9.0540   37.6950   59.9860 N.pl3   0  <0>0       -0.3328
      8  H20        9.1350   38.6030   60.3140 H       0  <0>0        0.1468
      9  C5         8.0930   37.3820   58.9250 C.3     0  <0>0        0.0691
     10  C4         6.6780   37.3640   59.5070 C.3     0  <0>0        0.0195
     11  C2         6.0580   35.9810   59.2960 C.3     0  <0>0        0.0016
     12  C1         6.1130   35.1920   60.6050 C.3     0  <0>0        0.0001
     13  C3         4.6010   36.1380   58.8560 C.3     0  <0>0        0.0001
     14  C6         8.1790   38.4450   57.8280 C.3     0  <0>0        0.0195
     15  C7         8.2600   37.7630   56.4610 C.3     0  <0>0        0.0016
     16  C8         8.5600   36.2740   56.6500 C.3     0  <0>0        0.0001
     17  C9         6.9240   37.9250   55.7310 C.3     0  <0>0        0.0001
     18  N3        12.2460   33.7830   62.2230 N.ar    0  <0>0       -0.2107
     19  N4        13.6350   33.8560   62.3850 N.ar    0  <0>0       -0.1621
     20  C17       14.0360   32.7580   62.9730 C.ar    0  <0>0        0.1222
     21  C16       12.9200   31.9440   63.1960 C.ar    0  <0>0        0.0432
     22  C15       11.8300   32.5930   62.7270 C.ar    0  <0>0        0.1037
@<TRIPOS>BOND
     1    17    15    1
     2    15    16    1
     3    15    14    1
     4    14     9    1
     5    13    11    1
     6     9    10    1
     7     9     7    1
     8    11    10    1
     9    11    12    1
    10     2     3   ar
    11     2     1   ar
    12     7     8    1
    13     7     1    1
    14     3     4   ar
    15     1     6   ar
    16     4    18    1
    17     4     5   ar
    18     6     5   ar
    19    18    19   ar
    20    18    22   ar
    21    19    20   ar
    22    22    21   ar
    23    20    21   ar
