@<TRIPOS>MOLECULE
ZINC06678963_replica-1.pdb
 25 28 0 0 0
SMALL
GASTEIGER

@<TRIPOS>ATOM
      1  C1         9.5980   37.6020   60.4520 C.3     0  <0>0        0.0537
      2  C2         9.8300   36.1490   60.7810 C.ar    0  <0>0        0.0792
      3  C3         8.9920   35.0780   60.4040 C.ar    0  <0>0        0.0391
      4  C4         9.5360   33.9380   60.8840 C.ar    0  <0>0        0.1338
      5  N1        10.6930   34.2920   61.5450 N.ar    0  <0>0       -0.2165
      6  N2        10.8410   35.6760   61.4530 N.ar    0  <0>0       -0.1686
      7  N3         9.1320   32.6270   60.8120 N.am    0  <0>0       -0.2688
      8  C11        8.1480   32.0000   60.2400 C.2     0  <0>0        0.2368
      9  O1         8.1940   30.7920   60.3280 O.2     0  <0>0       -0.2738
     10  C12        6.9810   32.5260   59.5000 C.3     0  <0>0        0.1247
     11  S1         7.3840   33.9470   58.4740 S.3     0  <0>0       -0.1231
     12  C13        7.7410   35.2920   59.6090 C.3     0  <0>0        0.1022
     13  C18        6.4260   31.4170   58.6040 C.3     0  <0>0        0.0214
     14  H11        9.7190   32.0300   61.3030 H       0  <0>0        0.1563
     15  C5        11.5710   33.4130   62.1920 C.ar    0  <0>0        0.0842
     16  C10       11.0890   32.2410   62.7600 C.ar    0  <0>0        0.0192
     17  C9        11.9580   31.3740   63.3920 C.ar    0  <0>0        0.0015
     18  C8        13.3050   31.6780   63.4720 C.ar    0  <0>0        0.0001
     19  C7        13.7870   32.8470   62.9120 C.ar    0  <0>0        0.0015
     20  C6        12.9240   33.7140   62.2730 C.ar    0  <0>0        0.0192
     21  C14        7.8830   36.5660   58.8190 C.ar    0  <0>0        0.0213
     22  S2         7.1620   38.1700   59.1330 S.2     0  <0>0       -0.0896
     23  C17        7.8530   39.0360   57.7340 C.ar    0  <0>0        0.0352
     24  C16        8.5700   38.0590   57.1260 C.ar    0  <0>0        0.0072
     25  C15        8.5850   36.7930   57.6820 C.ar    0  <0>0        0.0039
@<TRIPOS>BOND
     1    24    25   ar
     2    24    23   ar
     3    25    21   ar
     4    23    22   ar
     5    11    10    1
     6    11    12    1
     7    13    10    1
     8    21    22   ar
     9    21    12    1
    10    10     8    1
    11    12     3    1
    12     8     9    2
    13     8     7   am
    14     3     2   ar
    15     3     4   ar
    16     1     2    1
    17     2     6   ar
    18     7     4    1
    19     7    14    1
    20     4     5   ar
    21     6     5   ar
    22     5    15    1
    23    15    20   ar
    24    15    16   ar
    25    20    19   ar
    26    16    17   ar
    27    19    18   ar
    28    17    18   ar
