@<TRIPOS>MOLECULE
ZINC08927095_replica-1.pdb
 32 35 0 0 0
SMALL
GASTEIGER

@<TRIPOS>ATOM
      1  N2         6.1550   32.5160   59.8690 N.pl3   0  <0>0       -0.1598
      2  C3         7.2190   33.3990   59.7990 C.1     0  <0>0        0.2187
      3  N3         7.1220   34.4640   59.0180 N.2     0  <0>0       -0.3311
      4  C4         8.1240   35.3370   58.9260 C.2     0  <0>0        0.1297
      5  C5         9.2860   35.1150   59.6670 C.3     0  <0>0        0.1198
      6  C6         9.3480   33.9810   60.4770 C.2     0  <0>0        0.1297
      7  N4         8.3030   33.1580   60.5200 N.2     0  <0>0       -0.3311
      8  H4         6.2090   31.7330   60.4390 H       0  <0>0        0.1883
      9  N1         4.9980   32.7530   59.1140 N.2     0  <0>0       -0.1755
     10  C2         3.8450   32.8430   59.7040 C.2     0  <0>0        0.0802
     11  C1         3.7510   32.6940   61.2000 C.3     0  <0>0        0.0539
     12  C19        2.6290   33.0920   58.9100 C.ar    0  <0>0        0.0488
     13  C24        2.3130   32.2640   57.8240 C.ar    0  <0>0        0.1348
     14  C23        1.1650   32.5020   57.0890 C.ar    0  <0>0        0.0367
     15  C22        0.3390   33.5610   57.4170 C.ar    0  <0>0        0.0031
     16  C21        0.6500   34.3870   58.4840 C.ar    0  <0>0        0.0002
     17  C20        1.7870   34.1590   59.2310 C.ar    0  <0>0        0.0042
     18  O1         3.1290   31.2270   57.4990 O.3     0  <0>0       -0.5055
     19  H19        3.3230   31.1600   56.5540 H       0  <0>0        0.2922
     20  C7        10.5610   33.7000   61.2840 C.ar    0  <0>0        0.0268
     21  C12       11.6270   34.5990   61.2810 C.ar    0  <0>0        0.0028
     22  C11       12.7500   34.3360   62.0370 C.ar    0  <0>0        0.0068
     23  C10       12.8250   33.1770   62.7900 C.ar    0  <0>0        0.0346
     24  C9        11.7710   32.2790   62.7930 C.ar    0  <0>0        0.0068
     25 Br         14.3700   32.8200   63.8190 Br      0  <0>0       -0.0490
     26  C8        10.6420   32.5350   62.0440 C.ar    0  <0>0        0.0028
     27  C13        8.0070   36.5260   58.0480 C.ar    0  <0>0        0.0268
     28  C18        8.6350   37.7200   58.4000 C.ar    0  <0>0        0.0022
     29  C17        8.5270   38.8220   57.5760 C.ar    0  <0>0        0.0001
     30  C16        7.7880   38.7460   56.4090 C.ar    0  <0>0        0.0000
     31  C15        7.1590   37.5660   56.0580 C.ar    0  <0>0        0.0001
     32  C14        7.2640   36.4560   56.8710 C.ar    0  <0>0        0.0022
@<TRIPOS>BOND
     1    31    30   ar
     2    31    32   ar
     3    30    29   ar
     4    19    18    1
     5    32    27   ar
     6    14    15   ar
     7    14    13   ar
     8    15    16   ar
     9    18    13    1
    10    29    28   ar
    11    13    12   ar
    12    27    28   ar
    13    27     4    1
    14    16    17   ar
    15    12    17   ar
    16    12    10    1
    17     4     3    2
    18     4     5    1
    19     3     2    2
    20     9    10    2
    21     9     1    1
    22     5     6    1
    23    10    11    1
    24     2     1    1
    25     2     7    2
    26     1     8    1
    27     6     7    2
    28     6    20    1
    29    21    20   ar
    30    21    22   ar
    31    20    26   ar
    32    22    23   ar
    33    26    24   ar
    34    23    24   ar
    35    23    25    1
