@<TRIPOS>MOLECULE
ZINC41977436_replica-1.pdb
 20 21 0 0 0
SMALL
GASTEIGER

@<TRIPOS>ATOM
      1  C1        -0.9250   31.1700   54.2520 C.3     0  <0>0        0.0271
      2  C2        -1.1240   29.7480   54.7820 C.3     0  <0>0        0.1560
      3  C3        -1.1690   28.7830   53.6240 C.ar    0  <0>0        0.0075
      4  C8        -1.9930   29.0400   52.5430 C.ar    0  <0>0        0.0550
      5  C7        -2.0300   28.1570   51.4780 C.ar    0  <0>0        0.0111
      6 Cl         -2.9730   30.4730   52.5180 Cl      0  <0>0       -0.0825
      7  C6        -1.2540   27.0140   51.5010 C.ar    0  <0>0        0.0008
      8  C5        -0.4350   26.7560   52.5850 C.ar    0  <0>0       -0.0002
      9  C4        -0.3930   27.6400   53.6460 C.ar    0  <0>0       -0.0021
     10  C9        -2.4200   29.6760   55.5480 C.2     0  <0>0        0.3770
     11  O1        -2.8320   28.6020   55.9500 O.co2   0  <0>0       -0.2444
     12  O2        -3.0560   30.6930   55.7650 O.co2   0  <0>0       -0.2444
     13  S1         0.2530   29.3130   55.8790 S.3     0  <0>0       -0.0980
     14  C10        0.5970   30.8080   56.7450 C.ar    0  <0>0        0.0534
     15  C15        0.0100   31.0480   57.9850 C.ar    0  <0>0        0.1457
     16  C14        0.2870   32.2190   58.6630 C.ar    0  <0>0        0.0301
     17  F1        -0.8240   30.1320   58.5260 F       0  <0>0       -0.2037
     18  C13        1.1350   33.1580   58.1050 C.ar    0  <0>0        0.0023
     19  C12        1.7140   32.9270   56.8710 C.ar    0  <0>0        0.0006
     20  C11        1.4470   31.7550   56.1900 C.ar    0  <0>0        0.0084
@<TRIPOS>BOND
     1     5     7   ar
     2     5     4   ar
     3     7     8   ar
     4     6     4    1
     5     4     3   ar
     6     8     9   ar
     7     3     9   ar
     8     3     2    1
     9     1     2    1
    10     2    10    1
    11     2    13    1
    12    10    12   ar
    13    10    11   ar
    14    13    14    1
    15    20    14   ar
    16    20    19   ar
    17    14    15   ar
    18    19    18   ar
    19    15    17    1
    20    15    16   ar
    21    18    16   ar
