@<TRIPOS>MOLECULE
ZINC57341809_replica-1.pdb
 20 20 0 0 0
SMALL
GASTEIGER

@<TRIPOS>ATOM
      1  C9         9.4660   36.7730   60.7590 C.ar    0  <0>0        0.0448
      2  C10        9.6650   35.7040   59.8970 C.ar    0  <0>0        0.0174
      3  C11       10.6400   34.7660   60.1760 C.ar    0  <0>0        0.0382
      4  C12       11.4200   34.8920   61.3150 C.ar    0  <0>0        0.1385
      5  C13       11.2230   35.9600   62.1760 C.ar    0  <0>0        0.0382
      6  C14       10.2520   36.9020   61.8970 C.ar    0  <0>0        0.0174
      7  N1         8.4800   37.7250   60.4790 N.pl3   0  <0>0       -0.3340
      8  H18        8.3550   38.4840   61.0700 H       0  <0>0        0.1468
      9  C6         7.6340   37.5750   59.2920 C.3     0  <0>0        0.0690
     10  C5         6.1720   37.4360   59.7210 C.3     0  <0>0        0.0195
     11  C3         5.6770   36.0260   59.3950 C.3     0  <0>0        0.0016
     12  C4         6.4650   35.4710   58.2070 C.3     0  <0>0        0.0001
     13  C2         4.1900   36.0770   59.0410 C.3     0  <0>0        0.0001
     14  C1         4.0140   35.8240   57.5410 C.3     0  <0>0        0.0000
     15  C7         7.7880   38.8070   58.3980 C.3     0  <0>0        0.0195
     16  C8         8.5130   38.4140   57.1090 C.3     0  <0>0        0.0017
     17  O1        12.3800   33.9680   61.5870 O.3     0  <0>0       -0.4792
     18  C15       12.3120   33.3160   62.8570 C.3     0  <0>0        0.1661
     19  C16       11.2090   32.2560   62.8260 C.3     0  <0>0        0.0472
     20  C17       13.6550   32.6470   63.1590 C.3     0  <0>0        0.0472
@<TRIPOS>BOND
     1    16    15    1
     2    14    13    1
     3    12    11    1
     4    15     9    1
     5    13    11    1
     6     9    10    1
     7     9     7    1
     8    11    10    1
     9     2     3   ar
    10     2     1   ar
    11     3     4   ar
    12     7     1    1
    13     7     8    1
    14     1     6   ar
    15     4    17    1
    16     4     5   ar
    17    17    18    1
    18     6     5   ar
    19    19    18    1
    20    18    20    1
