@<TRIPOS>MOLECULE
ZINC01341001_replica-1.pdb
 29 33 0 0 0
SMALL
GASTEIGER

@<TRIPOS>ATOM
      1  C9         0.0830   27.6980   54.3230 C.2     0  <0>0        0.2969
      2  C10       -0.4940   27.3900   53.1200 C.2     0  <0>0        0.0818
      3  C11       -1.2670   28.3490   52.4640 C.2     0  <0>0        0.1154
      4  N2        -1.4370   29.5410   53.0010 N.2     0  <0>0       -0.3715
      5  C12       -0.8790   29.8580   54.1790 C.2     0  <0>0        0.2813
      6  N3        -0.1170   28.9430   54.8580 N.pl3   0  <0>0       -0.0359
      7  N4         0.3330   29.5480   56.0370 N.2     0  <0>0       -0.0852
      8  C13       -0.1390   30.7800   56.0890 C.2     0  <0>0        0.1108
      9  C14       -0.9040   31.0150   54.9430 C.3     0  <0>0        0.1539
     10  C21       -1.7910   27.7730   51.1660 C.3     0  <0>0        0.0594
     11  C22       -1.6310   26.2440   51.3070 C.3     0  <0>0        0.0124
     12  C23       -0.4570   26.1190   52.3020 C.3     0  <0>0        0.0364
     13  N1         0.8520   26.7670   54.9880 N.pl3   0  <0>0       -0.2178
     14  H10        1.7790   27.1220   55.1640 H       0  <0>0        0.2924
     15  C8         0.2030   26.3440   56.2370 C.3     0  <0>0        0.2264
     16  C6         0.2290   24.8400   56.3310 C.ar    0  <0>0        0.0238
     17  C5         0.6610   24.0890   55.2550 C.ar    0  <0>0       -0.0003
     18  C4         0.6840   22.7080   55.3400 C.ar    0  <0>0       -0.0005
     19  C3         0.2770   22.0820   56.5030 C.ar    0  <0>0       -0.0043
     20  C2        -0.1600   22.8340   57.5770 C.ar    0  <0>0       -0.0220
     21  C1        -0.6110   22.1500   58.8420 C.3     0  <0>0        0.0310
     22  C7        -0.1790   24.2130   57.4940 C.ar    0  <0>0       -0.0046
     23  C15        0.1020   31.7540   57.1830 C.ar    0  <0>0        0.0198
     24  C20        0.0890   33.1200   56.9170 C.ar    0  <0>0        0.0309
     25  C19        0.3080   34.0240   57.9410 C.ar    0  <0>0        0.1402
     26  C18        0.5520   33.5690   59.2260 C.ar    0  <0>0        0.0296
     27  F1         0.2910   35.3500   57.6860 F       0  <0>0       -0.2042
     28  C17        0.5720   32.2120   59.4920 C.ar    0  <0>0        0.0023
     29  C16        0.3480   31.3040   58.4790 C.ar    0  <0>0        0.0014
@<TRIPOS>BOND
     1    10    11    1
     2    10     3    1
     3    11    12    1
     4    12     2    1
     5     3     4    2
     6     3     2    1
     7     4     5    2
     8     2     1    2
     9     5     6    1
    10     5     9    1
    11     1     6    1
    12     1    13    1
    13     6     7    1
    14     9     8    1
    15    13    14    1
    16    13    15    1
    17    17    18   ar
    18    17    16   ar
    19    18    19   ar
    20     7     8    2
    21     8    23    1
    22    15    16    1
    23    16    22   ar
    24    19    20   ar
    25    24    23   ar
    26    24    25   ar
    27    23    29   ar
    28    22    20   ar
    29    20    21    1
    30    27    25    1
    31    25    26   ar
    32    29    28   ar
    33    26    28   ar
