@<TRIPOS>MOLECULE
ZINC36565216_replica-1.pdb
 32 33 0 0 0
SMALL
GASTEIGER

@<TRIPOS>ATOM
      1  C4         4.7160   34.9440   59.5400 C.3     0  <0>0        0.1747
      2  N1         5.8970   35.5060   58.8810 N.am    0  <0>0       -0.2694
      3  C16        6.6480   36.4280   59.5150 C.2     0  <0>0        0.2298
      4  O3         6.2580   36.9190   60.5520 O.2     0  <0>0       -0.2745
      5  C3         6.2610   35.0670   57.5310 C.3     0  <0>0        0.0941
      6  C2         5.9130   36.1650   56.5250 C.3     0  <0>0        0.0215
      7  C1         6.9240   36.1440   55.3760 C.3     0  <0>0        0.0018
      8  C17        7.9740   36.8500   58.9330 C.3     0  <0>0        0.0989
      9  C18        8.0490   38.3770   58.8900 C.3     0  <0>0        0.0135
     10  C19        8.5300   38.8240   57.5080 C.3     0  <0>0        0.0009
     11  C20        9.0900   36.3160   59.7930 C.ar    0  <0>0       -0.0139
     12  C25        9.6650   35.0940   59.4990 C.ar    0  <0>0       -0.0038
     13  C24       10.6920   34.6060   60.2850 C.ar    0  <0>0       -0.0003
     14  C23       11.1400   35.3380   61.3700 C.ar    0  <0>0       -0.0000
     15  C22       10.5620   36.5570   61.6660 C.ar    0  <0>0       -0.0003
     16  C21        9.5370   37.0470   60.8780 C.ar    0  <0>0       -0.0038
     17  C5         3.5500   34.9650   58.5860 C.ar    0  <0>0        0.0047
     18  C10        2.7670   36.1000   58.4800 C.ar    0  <0>0        0.0009
     19  C9         1.7000   36.1240   57.6010 C.ar    0  <0>0        0.0364
     20  C8         1.4090   35.0050   56.8340 C.ar    0  <0>0        0.1337
     21  C7         2.1950   33.8660   56.9470 C.ar    0  <0>0        0.0364
     22  C6         3.2620   33.8490   57.8220 C.ar    0  <0>0        0.0009
     23  O1         0.3580   35.0240   55.9730 O.3     0  <0>0       -0.5055
     24  H14       -0.5060   35.0100   56.4060 H       0  <0>0        0.2922
     25  C11        5.0010   33.5230   59.9540 C.2     0  <0>0        0.2448
     26  O2         4.2070   32.9220   60.6460 O.2     0  <0>0       -0.2729
     27  N2         6.1400   32.9220   59.5570 N.am    0  <0>0       -0.3059
     28  H15        6.7750   33.4030   59.0040 H       0  <0>0        0.1494
     29  C12        6.4180   31.5410   59.9600 C.3     0  <0>0        0.0569
     30  C13        5.3780   30.6070   59.3350 C.3     0  <0>0        0.0196
     31  C14        7.8150   31.1410   59.4810 C.3     0  <0>0        0.0196
     32  C15        6.3500   31.4310   61.4850 C.3     0  <0>0        0.0196
@<TRIPOS>BOND
     1     7     6    1
     2    23    24    1
     3    23    20    1
     4     6     5    1
     5    20    21   ar
     6    20    19   ar
     7    21    22   ar
     8    10     9    1
     9     5     2    1
    10    19    18   ar
    11    22    17   ar
    12    18    17   ar
    13    17     1    1
    14     2     3   am
    15     2     1    1
    16     9     8    1
    17     8     3    1
    18     8    11    1
    19    28    27    1
    20    30    29    1
    21    31    29    1
    22    12    11   ar
    23    12    13   ar
    24     3     4    2
    25     1    25    1
    26    27    25   am
    27    27    29    1
    28    11    16   ar
    29    25    26    2
    30    29    32    1
    31    13    14   ar
    32    16    15   ar
    33    14    15   ar
