@<TRIPOS>MOLECULE
ZINC19820405_replica-1.pdb
 28 29 0 0 0
SMALL
GASTEIGER

@<TRIPOS>ATOM
      1  C5         5.7170   34.6790   58.0090 C.2     0  <0>0        0.1907
      2  C6         6.7020   34.4460   58.9930 C.3     0  <0>0        0.2109
      3  C7         8.0120   34.9020   58.7390 C.2     0  <0>0        0.1438
      4  N2         8.2640   35.5260   57.5920 N.2     0  <0>0       -0.3378
      5  C8         7.3070   35.7230   56.6980 C.1     0  <0>0        0.1688
      6  N3         6.0610   35.3110   56.8940 N.2     0  <0>0       -0.3229
      7  C20        6.3800   33.7680   60.2120 C.1     0  <0>0        0.0881
      8  N4         6.1250   33.2300   61.1790 N.1     0  <0>0       -0.1950
      9  N1         4.4180   34.2550   58.2040 N.pl3   0  <0>0       -0.3091
     10  H10        4.0790   33.3030   57.7700 H       0  <0>0        0.1489
     11  C3         3.4900   35.0760   58.9870 C.3     0  <0>0        0.1003
     12  C2         2.7540   36.0430   58.0560 C.3     0  <0>0        0.0221
     13  C1         2.2160   35.2760   56.8470 C.3     0  <0>0        0.0018
     14  C4         2.4740   34.1700   59.6870 C.3     0  <0>0        0.1565
     15  O1         3.0320   33.6850   60.9090 O.3     0  <0>0       -0.3802
     16  H9         3.6990   34.3280   61.5030 H       0  <0>0        0.2105
     17  C10        9.0890   34.6870   59.7330 C.ar    0  <0>0        0.0278
     18  C15        9.3800   33.3990   60.1840 C.ar    0  <0>0        0.0020
     19  C14       10.3840   33.2050   61.1090 C.ar    0  <0>0       -0.0042
     20  C13       11.1030   34.2840   61.5900 C.ar    0  <0>0       -0.0228
     21  C12       10.8210   35.5640   61.1460 C.ar    0  <0>0       -0.0042
     22  C11        9.8210   35.7700   60.2180 C.ar    0  <0>0        0.0020
     23  C16       12.2000   34.0660   62.6000 C.3     0  <0>0        0.0189
     24  C17       12.1640   35.1860   63.6420 C.3     0  <0>0        0.0044
     25  C18       11.9950   32.7180   63.2920 C.3     0  <0>0        0.0044
     26  C19       13.5560   34.0740   61.8890 C.3     0  <0>0        0.0044
     27  S1         7.7000   36.5640   55.2000 S.3     0  <0>0       -0.0172
     28  C9         7.0930   38.2210   55.6010 C.3     0  <0>0        0.0872
@<TRIPOS>BOND
     1    27    28    1
     2    27     5    1
     3     5     6    2
     4     5     4    2
     5    13    12    1
     6     6     1    2
     7     4     3    2
     8    10     9    1
     9     1     9    1
    10     1     2    1
    11    12    11    1
    12     9    11    1
    13     3     2    1
    14     3    17    1
    15    11    14    1
    16     2     7    1
    17    14    15    1
    18    17    18   ar
    19    17    22   ar
    20    18    19   ar
    21     7     8    3
    22    22    21   ar
    23    15    16    1
    24    19    20   ar
    25    21    20   ar
    26    20    23    1
    27    26    23    1
    28    23    25    1
    29    23    24    1
