@<TRIPOS>MOLECULE
ZINC15232694_replica-1.pdb
 28 30 0 0 0
SMALL
GASTEIGER

@<TRIPOS>ATOM
      1  C7        -1.2930   30.3600   54.5760 C.ar    0  <0>0        0.1866
      2  N2        -2.0170   30.4970   55.6690 N.ar    0  <0>0       -0.1249
      3  N3        -1.4710   31.0950   56.7820 N.ar    0  <0>0       -0.1332
      4  C8        -0.2280   31.5390   56.7450 C.ar    0  <0>0        0.1607
      5  S1         0.2490   31.1100   55.0780 S.2     0  <0>0       -0.0242
      6  S2         0.7090   32.3410   58.0030 S.3     0  <0>0       -0.0840
      7  C9         0.1670   34.0700   57.9170 C.3     0  <0>0        0.0972
      8  C10        0.9640   34.8020   56.8350 C.3     0  <0>0        0.1652
      9  C11        1.8070   35.9050   57.4800 C.3     0  <0>0        0.2352
     10  O1         2.9390   35.3210   58.1280 O.3     0  <0>0       -0.4728
     11  C12        4.1650   35.7680   57.7470 C.ar    0  <0>0        0.1387
     12  C17        4.4370   35.9910   56.4040 C.ar    0  <0>0        0.0378
     13  C16        5.6820   36.4470   56.0190 C.ar    0  <0>0        0.0145
     14  C15        6.6590   36.6800   56.9710 C.ar    0  <0>0        0.0579
     15  C14        6.3900   36.4580   58.3100 C.ar    0  <0>0        0.0145
     16 Cl          8.2250   37.2510   56.4850 Cl      0  <0>0       -0.0822
     17  C13        5.1450   36.0080   58.7000 C.ar    0  <0>0        0.0378
     18  O2         0.0630   35.3820   55.8900 O.3     0  <0>0       -0.3798
     19  H15        0.3530   35.3050   54.9710 H       0  <0>0        0.2105
     20  N1        -1.6400   29.7900   53.3570 N.pl3   0  <0>0       -0.2896
     21  H6        -2.1730   30.2920   52.7200 H       0  <0>0        0.1542
     22  C5        -1.2200   28.4920   53.0460 C.ar    0  <0>0        0.0776
     23  C4        -1.6000   27.9040   51.8440 C.ar    0  <0>0        0.1534
     24  C3        -1.1820   26.6210   51.5430 C.ar    0  <0>0        0.0309
     25  F1        -2.3740   28.5870   50.9730 F       0  <0>0       -0.2029
     26  C2        -0.3890   25.9230   52.4340 C.ar    0  <0>0        0.0024
     27  C1        -0.0090   26.5060   53.6290 C.ar    0  <0>0        0.0014
     28  C6        -0.4220   27.7870   53.9390 C.ar    0  <0>0        0.0169
@<TRIPOS>BOND
     1    25    23    1
     2    24    23   ar
     3    24    26   ar
     4    23    22   ar
     5    26    27   ar
     6    21    20    1
     7    22    20    1
     8    22    28   ar
     9    20     1    1
    10    27    28   ar
    11     1     5   ar
    12     1     2   ar
    13    19    18    1
    14     5     4   ar
    15     2     3   ar
    16    18     8    1
    17    13    12   ar
    18    13    14   ar
    19    12    11   ar
    20    16    14    1
    21     4     3   ar
    22     4     6    1
    23     8     9    1
    24     8     7    1
    25    14    15   ar
    26     9    10    1
    27    11    10    1
    28    11    17   ar
    29     7     6    1
    30    15    17   ar
