@<TRIPOS>MOLECULE
ZINC05174115_replica-1.pdb
 29 32 0 0 0
SMALL
GASTEIGER

@<TRIPOS>ATOM
      1  C8        11.9430   34.5910   62.3420 C.2     0  <0>0        0.0046
      2  C9        10.9220   34.7950   61.4350 C.2     0  <0>0        0.0555
      3  C10       10.1330   33.7740   60.7290 C.2     0  <0>0        0.0198
      4  C11        9.2460   34.4340   59.9500 C.2     0  <0>0        0.0586
      5  N1         9.4020   35.8030   60.0870 N.am    0  <0>0       -0.2309
      6  C12       10.3840   36.0850   60.9630 C.2     0  <0>0        0.2566
      7  O2        10.7590   37.1940   61.3000 O.2     0  <0>0       -0.2692
      8  C5        12.2320   33.2400   62.8250 C.ar    0  <0>0        0.0003
      9  C4        13.5570   32.8500   63.0750 C.ar    0  <0>0        0.0031
     10  C3        13.8220   31.5840   63.5270 C.ar    0  <0>0        0.0369
     11  C2        12.7820   30.6860   63.7370 C.ar    0  <0>0        0.1387
     12  C7        11.4660   31.0660   63.4910 C.ar    0  <0>0        0.0369
     13  C6        11.1870   32.3300   63.0450 C.ar    0  <0>0        0.0031
     14  O1        13.0510   29.4330   64.1850 O.3     0  <0>0       -0.4714
     15  C1        12.2990   28.9700   65.3090 C.3     0  <0>0        0.2525
     16  C13        8.6360   36.7640   59.4100 C.ar    0  <0>0        0.0919
     17  C18        7.6830   37.5090   60.0990 C.ar    0  <0>0        0.1475
     18  C17        6.9260   38.4540   59.4240 C.ar    0  <0>0        0.0379
     19  C16        7.1260   38.6620   58.0720 C.ar    0  <0>0        0.0032
     20  C15        8.0730   37.9220   57.3870 C.ar    0  <0>0        0.0015
     21  C14        8.8280   36.9740   58.0520 C.ar    0  <0>0        0.0183
     22  O3         7.4910   37.3070   61.4300 O.3     0  <0>0       -0.5042
     23  H14        7.9300   36.5180   61.7760 H       0  <0>0        0.2922
     24  C19        8.2510   33.7840   59.0730 C.ar    0  <0>0        0.0140
     25  C24        6.9270   33.6440   59.4970 C.ar    0  <0>0        0.0012
     26  C23        6.0040   33.0360   58.6720 C.ar    0  <0>0        0.0000
     27  C22        6.3860   32.5640   57.4280 C.ar    0  <0>0        0.0000
     28  C21        7.6960   32.7000   57.0030 C.ar    0  <0>0        0.0000
     29  C20        8.6290   33.3110   57.8140 C.ar    0  <0>0        0.0012
@<TRIPOS>BOND
     1    28    27   ar
     2    28    29   ar
     3    20    21   ar
     4    20    19   ar
     5    27    26   ar
     6    29    24   ar
     7    21    16   ar
     8    19    18   ar
     9    26    25   ar
    10    24    25   ar
    11    24     4    1
    12    16     5    1
    13    16    17   ar
    14    18    17   ar
    15     4     5    1
    16     4     3    2
    17     5     6   am
    18    17    22    1
    19     3     2    1
    20     6     7    2
    21     6     2    1
    22    22    23    1
    23     2     1    2
    24     1     8    1
    25     8    13   ar
    26     8     9   ar
    27    13    12   ar
    28     9    10   ar
    29    12    11   ar
    30    10    11   ar
    31    11    14    1
    32    14    15    1
