@<TRIPOS>MOLECULE
ZINC40961353_replica-1.pdb
 26 27 0 0 0
SMALL
GASTEIGER

@<TRIPOS>ATOM
      1  N2         0.5120   32.4450   55.9670 N.am    0  <0>0       -0.2029
      2  C9         1.6620   32.8870   56.5130 C.2     0  <0>0        0.2813
      3  O1         2.6820   32.2430   56.3840 O.2     0  <0>0       -0.2695
      4  H10       -0.3030   32.9600   56.0700 H       0  <0>0        0.1774
      5  C10        1.6810   34.1820   57.2840 C.3     0  <0>0        0.2428
      6  C11        0.2560   34.5460   57.7050 C.3     0  <0>0        0.0575
      7  O2         2.2140   35.2200   56.4590 O.3     0  <0>0       -0.4699
      8  C12        3.4810   35.6320   56.7260 C.ar    0  <0>0        0.1391
      9  C17        3.9460   35.6450   58.0330 C.ar    0  <0>0        0.0366
     10  C16        5.2370   36.0580   58.3010 C.ar    0  <0>0       -0.0012
     11  C15        6.0610   36.4690   57.2700 C.ar    0  <0>0       -0.0226
     12  C14        5.5980   36.4610   55.9670 C.ar    0  <0>0       -0.0012
     13  C13        4.3090   36.0430   55.6930 C.ar    0  <0>0        0.0366
     14  C18        7.4660   36.9250   57.5650 C.3     0  <0>0        0.0189
     15  C19        7.5140   37.5640   58.9540 C.3     0  <0>0        0.0044
     16  C20        8.4120   35.7220   57.5260 C.3     0  <0>0        0.0044
     17  C21        7.9000   37.9510   56.5160 C.3     0  <0>0        0.0044
     18  N1         0.4940   31.2410   55.2510 N.2     0  <0>0       -0.1775
     19  C8        -0.6360   30.7280   54.8720 C.2     0  <0>0        0.1176
     20  C5        -0.6550   29.4610   54.1170 C.ar    0  <0>0        0.0207
     21  C4        -1.5080   29.3100   53.0220 C.ar    0  <0>0        0.0013
     22  C3        -1.5200   28.1220   52.3200 C.ar    0  <0>0       -0.0042
     23  C2        -0.6900   27.0820   52.7000 C.ar    0  <0>0       -0.0218
     24  C1        -0.7090   25.7870   51.9280 C.3     0  <0>0        0.0310
     25  C7         0.1540   27.2230   53.7870 C.ar    0  <0>0       -0.0042
     26  C6         0.1800   28.4080   54.4940 C.ar    0  <0>0        0.0013
@<TRIPOS>BOND
     1    24    23    1
     2    22    23   ar
     3    22    21   ar
     4    23    25   ar
     5    21    20   ar
     6    25    26   ar
     7    20    26   ar
     8    20    19    1
     9    19    18    2
    10    18     1    1
    11    13    12   ar
    12    13     8   ar
    13     1     4    1
    14     1     2   am
    15    12    11   ar
    16     3     2    2
    17     7     8    1
    18     7     5    1
    19     2     5    1
    20    17    14    1
    21     8     9   ar
    22    11    14    1
    23    11    10   ar
    24     5     6    1
    25    16    14    1
    26    14    15    1
    27     9    10   ar
