@<TRIPOS>MOLECULE
ZINC20023006_replica-1.pdb
 21 24 0 0 0
SMALL
GASTEIGER

@<TRIPOS>ATOM
      1  C1        10.7660   36.8440   62.0420 C.3     0  <0>0        0.0212
      2  C2        10.0780   35.6330   61.4080 C.3     0  <0>0        0.0703
      3  C3         9.1420   36.1050   60.2930 C.3     0  <0>0        0.0165
      4  C8         9.1880   37.6310   60.2010 C.3     0  <0>0        0.0016
      5  C7         8.2510   38.1030   59.0860 C.3     0  <0>0        0.0001
      6  C6         6.8220   37.6520   59.3950 C.3     0  <0>0        0.0000
      7  C9         8.6990   37.4980   57.7540 C.3     0  <0>0        0.0000
      8  C5         6.7770   36.1250   59.4880 C.3     0  <0>0        0.0001
      9  C4         7.7120   35.6550   60.6030 C.3     0  <0>0        0.0016
     10  C11        7.2250   35.5200   58.1560 C.3     0  <0>0        0.0000
     11  C10        8.6540   35.9710   57.8470 C.3     0  <0>0        0.0001
     12  C12        9.5900   35.5000   58.9610 C.3     0  <0>0        0.0016
     13  N1        11.0900   34.7340   60.8490 N.pl3   0  <0>0       -0.3191
     14  H20       11.2640   34.7080   59.7630 H       0  <0>0        0.1482
     15  C13       11.8310   33.9120   61.6910 C.ar    0  <0>0        0.1391
     16  N2        13.0650   34.2570   62.0250 N.ar    0  <0>0       -0.2285
     17  C17       13.8010   33.5060   62.8220 C.ar    0  <0>0        0.1004
     18  C16       13.3080   32.3250   63.3390 C.ar    0  <0>0        0.0216
     19  C15       12.0200   31.9240   63.0090 C.ar    0  <0>0        0.0158
     20  C14       11.2690   32.7340   62.1770 C.ar    0  <0>0        0.0890
     21 Cl          9.6500   32.2850   61.7370 Cl      0  <0>0       -0.0793
@<TRIPOS>BOND
     1     7    11    1
     2     7     5    1
     3    11    10    1
     4    11    12    1
     5    10     8    1
     6    12     3    1
     7     5     6    1
     8     5     4    1
     9     6     8    1
    10     8     9    1
    11    14    13    1
    12     4     3    1
    13     3     9    1
    14     3     2    1
    15    13     2    1
    16    13    15    1
    17     2     1    1
    18    15    16   ar
    19    15    20   ar
    20    21    20    1
    21    16    17   ar
    22    20    19   ar
    23    17    18   ar
    24    19    18   ar
