@<TRIPOS>MOLECULE
ZINC23243814_replica-1.pdb
 24 25 0 0 0
SMALL
GASTEIGER

@<TRIPOS>ATOM
      1  C6        -0.0260   30.4490   58.1450 C.2     0  <0>0        0.1265
      2  C7        -0.4160   29.4530   58.9930 C.3     0  <0>0        0.1910
      3  C8        -1.5200   28.6560   58.6430 C.1     0  <0>0        0.1980
      4  O2        -1.8950   27.7580   59.3780 O.2     0  <0>0       -0.2130
      5  N2        -2.1580   28.9060   57.4800 N.2     0  <0>0       -0.2640
      6  C9        -1.7200   29.9100   56.6710 C.1     0  <0>0        0.1787
      7  N3        -0.6840   30.6540   57.0070 N.2     0  <0>0       -0.3415
      8  S1        -2.5510   30.2200   55.1480 S.3     0  <0>0       -0.0127
      9  C10       -1.1400   30.2250   54.0140 C.3     0  <0>0        0.1006
     10  C11       -0.9860   28.8590   53.3990 C.ar    0  <0>0       -0.0102
     11  C16       -1.5800   28.5780   52.1820 C.ar    0  <0>0       -0.0025
     12  C15       -1.4390   27.3240   51.6170 C.ar    0  <0>0        0.0111
     13  C14       -0.7030   26.3510   52.2680 C.ar    0  <0>0        0.0577
     14  C13       -0.1080   26.6330   53.4850 C.ar    0  <0>0        0.0111
     15 Cl         -0.5250   24.7760   51.5580 Cl      0  <0>0       -0.0822
     16  C12       -0.2450   27.8890   54.0470 C.ar    0  <0>0       -0.0025
     17  C5         1.1550   31.3180   58.4980 C.3     0  <0>0        0.1414
     18  C4         0.7190   32.7580   58.5580 C.2     0  <0>0        0.2296
     19  N1         0.8730   33.5550   57.4810 N.am    0  <0>0       -0.3001
     20  H6         1.3160   33.1520   56.5590 H       0  <0>0        0.1498
     21  O1         0.2300   33.2020   59.5760 O.2     0  <0>0       -0.2746
     22  C3         0.4490   34.9550   57.5400 C.3     0  <0>0        0.1161
     23  C2         1.5620   35.8390   57.0370 C.2     0  <0>0       -0.0049
     24  C1         2.5290   35.3290   56.3160 C.2     0  <0>0       -0.0032
@<TRIPOS>BOND
     1    15    13    1
     2    12    11   ar
     3    12    13   ar
     4    11    10   ar
     5    13    14   ar
     6    10     9    1
     7    10    16   ar
     8    14    16   ar
     9     9     8    1
    10     8     6    1
    11    24    23    2
    12    20    19    1
    13     6     7    2
    14     6     5    2
    15     7     1    2
    16    23    22    1
    17     5     3    2
    18    19    22    1
    19    19    18   am
    20     1    17    1
    21     1     2    1
    22    17    18    1
    23    18    21    2
    24     3     2    1
    25     3     4    2
