@<TRIPOS>MOLECULE
ZINC33812381_replica-1.pdb
 26 29 0 0 0
SMALL
GASTEIGER

@<TRIPOS>ATOM
      1  C5         0.3460   34.3340   58.9480 C.2     0  <0>0        0.0473
      2  C6         1.5100   34.7630   58.3780 C.2     0  <0>0        0.1845
      3  C7         1.6290   35.4080   57.1180 C.2     0  <0>0        0.2327
      4  O1         0.7300   35.6870   56.3400 O.2     0  <0>0       -0.2832
      5  C8         3.0690   35.6700   56.9520 C.ar    0  <0>0        0.0767
      6  C9         3.8270   36.2680   55.9460 C.ar    0  <0>0        0.0095
      7  C10        5.1840   36.3670   56.0840 C.ar    0  <0>0        0.0379
      8  C11        5.8090   35.8730   57.2250 C.ar    0  <0>0        0.1518
      9  C12        5.0700   35.2770   58.2330 C.ar    0  <0>0        0.0752
     10  C13        3.6910   35.1690   58.1080 C.ar    0  <0>0        0.1516
     11  O2         2.7450   34.6510   58.9210 O.3     0  <0>0       -0.4500
     12  O3         7.1580   35.9780   57.3520 O.3     0  <0>0       -0.4209
     13  C14        7.6190   36.8450   58.2750 C.2     0  <0>0        0.3457
     14  O4         7.1790   37.9760   58.3200 O.2     0  <0>0       -0.2445
     15  C15        8.6600   36.4190   59.2320 C.ar    0  <0>0        0.0761
     16  C20        9.4110   35.2670   58.9840 C.ar    0  <0>0        0.0070
     17  C19       10.3810   34.8750   59.8810 C.ar    0  <0>0        0.0069
     18  C18       10.6130   35.6190   61.0250 C.ar    0  <0>0        0.0346
     19  C17        9.8720   36.7610   61.2770 C.ar    0  <0>0        0.0069
     20 Br         11.9470   35.0730   62.2510 Br      0  <0>0       -0.0490
     21  C16        8.9010   37.1680   60.3850 C.ar    0  <0>0        0.0070
     22  C3         0.3690   33.7040   60.2110 C.ar    0  <0>0        0.0326
     23  C2        -0.0840   34.1810   61.4380 C.ar    0  <0>0        0.0071
     24  C1         0.0590   33.3480   62.5190 C.ar    0  <0>0        0.0075
     25  C4         0.6280   32.1250   62.3470 C.ar    0  <0>0        0.0354
     26  S1         0.9900   32.0900   60.6520 S.2     0  <0>0       -0.0863
@<TRIPOS>BOND
     1     6     7   ar
     2     6     5   ar
     3     7     8   ar
     4     4     3    2
     5     5     3    1
     6     5    10   ar
     7     3     2    1
     8     8    12    1
     9     8     9   ar
    10    12    13    1
    11    10     9   ar
    12    10    11    1
    13    13    14    2
    14    13    15    1
    15     2    11    1
    16     2     1    2
    17     1    22    1
    18    16    15   ar
    19    16    17   ar
    20    15    21   ar
    21    17    18   ar
    22    22    26   ar
    23    22    23   ar
    24    21    19   ar
    25    26    25   ar
    26    18    19   ar
    27    18    20    1
    28    23    24   ar
    29    25    24   ar
