@<TRIPOS>MOLECULE
ZINC04145554_replica-1.pdb
 28 31 0 0 0
SMALL
GASTEIGER

@<TRIPOS>ATOM
      1  N1         7.3140   34.9500   57.5430 N.ar    0  <0>0       -0.2693
      2  C8         8.2190   33.9610   57.8630 C.ar    0  <0>0        0.1707
      3  N2         8.2220   33.1050   56.8670 N.ar    0  <0>0       -0.1279
      4  N3         7.3950   33.4840   55.9600 N.ar    0  <0>0       -0.1218
      5  C9         6.8110   34.6060   56.3190 C.ar    0  <0>0        0.1973
      6  S1         5.6100   35.5030   55.3940 S.3     0  <0>0       -0.0704
      7  C10        4.1990   34.3780   55.5370 C.3     0  <0>0        0.0945
      8  C11        3.5800   34.5190   56.9040 C.ar    0  <0>0        0.0271
      9  C16        3.6760   33.4850   57.8170 C.ar    0  <0>0        0.0567
     10  C15        3.1120   33.6170   59.0740 C.ar    0  <0>0        0.0112
     11 Cl          4.5090   32.0240   57.3890 Cl      0  <0>0       -0.0825
     12  C14        2.4450   34.7790   59.4130 C.ar    0  <0>0        0.0032
     13  C13        2.3440   35.8120   58.5000 C.ar    0  <0>0        0.0294
     14  C12        2.9110   35.6830   57.2450 C.ar    0  <0>0        0.1378
     15  F1         2.8130   36.6920   56.3520 F       0  <0>0       -0.2044
     16  C7         6.9800   36.0730   58.3120 C.ar    0  <0>0        0.0633
     17  C2         7.5970   37.2930   58.0670 C.ar    0  <0>0       -0.0056
     18  C1         8.6280   37.4100   56.9730 C.3     0  <0>0        0.0326
     19  C3         7.2610   38.3990   58.8220 C.ar    0  <0>0       -0.0028
     20  C4         6.3190   38.2910   59.8280 C.ar    0  <0>0       -0.0002
     21  C5         5.7070   37.0770   60.0790 C.ar    0  <0>0        0.0015
     22  C6         6.0340   35.9680   59.3240 C.ar    0  <0>0        0.0173
     23  C17        9.0320   33.8790   59.0940 C.ar    0  <0>0        0.0394
     24  C21        8.8700   32.8190   59.9950 C.ar    0  <0>0        0.0237
     25  C20        9.6500   32.7830   61.1320 C.ar    0  <0>0        0.0990
     26  N4        10.5380   33.7280   61.3750 N.ar    0  <0>0       -0.2423
     27  C19       10.7210   34.7460   60.5530 C.ar    0  <0>0        0.0990
     28  C18        9.9900   34.8580   59.3910 C.ar    0  <0>0        0.0237
@<TRIPOS>BOND
     1     6     7    1
     2     6     5    1
     3     7     8    1
     4     4     5   ar
     5     4     3   ar
     6     5     1   ar
     7    15    14    1
     8     3     2   ar
     9     8    14   ar
    10     8     9   ar
    11    18    17    1
    12    14    13   ar
    13    11     9    1
    14     1     2   ar
    15     1    16    1
    16     9    10   ar
    17     2    23    1
    18    17    16   ar
    19    17    19   ar
    20    16    22   ar
    21    13    12   ar
    22    19    20   ar
    23    10    12   ar
    24    23    28   ar
    25    23    24   ar
    26    22    21   ar
    27    28    27   ar
    28    20    21   ar
    29    24    25   ar
    30    27    26   ar
    31    25    26   ar
