@<TRIPOS>MOLECULE
ZINC16423820_replica-1.pdb
 26 27 0 0 0
SMALL
GASTEIGER

@<TRIPOS>ATOM
      1  C4         0.1210   29.6180   59.8120 C.3     0  <0>0        0.0432
      2  C5        -1.1980   28.8480   59.9250 C.3     0  <0>0        0.0064
      3  C6        -1.4250   28.0220   58.6580 C.3     0  <0>0        0.0051
      4  C7        -1.6400   28.9540   57.4620 C.3     0  <0>0        0.0277
      5  C8        -0.4280   29.8560   57.3360 C.2     0  <0>0       -0.0055
      6  C9         0.1760   30.0670   56.1480 C.2     0  <0>0       -0.0030
      7  C17        0.0590   30.4910   58.5740 C.2     0  <0>0        0.0934
      8  N1         0.4190   31.7390   58.6040 N.2     0  <0>0       -0.0768
      9  C10       -0.4370   29.5580   54.9120 C.ar    0  <0>0       -0.0001
     10  C15       -1.3650   30.3390   54.2150 C.ar    0  <0>0        0.0031
     11  C14       -1.9360   29.8580   53.0580 C.ar    0  <0>0        0.0369
     12  C13       -1.5910   28.5990   52.5820 C.ar    0  <0>0        0.1387
     13  C12       -0.6690   27.8190   53.2700 C.ar    0  <0>0        0.0369
     14  C11       -0.0890   28.2930   54.4250 C.ar    0  <0>0        0.0031
     15  O1        -2.1570   28.1280   51.4400 O.3     0  <0>0       -0.4714
     16  C16       -1.7470   26.8330   50.9990 C.3     0  <0>0        0.2525
     17  C3         0.3150   30.4950   61.0520 C.3     0  <0>0        0.0060
     18  C2        -0.8430   30.2640   62.0260 C.3     0  <0>0        0.0004
     19  C1        -0.6820   31.1860   63.2350 C.3     0  <0>0        0.0000
     20  O2         0.3590   32.4140   57.5910 O.3     0  <0>0       -0.2988
     21  C18        0.5560   33.7380   57.7260 C.2     0  <0>0        0.4266
     22  O3         0.3310   34.2800   58.7900 O.2     0  <0>0       -0.2241
     23  N2         1.0030   34.4640   56.6810 N.am    0  <0>0       -0.2689
     24  H23        1.1820   34.0310   55.8320 H       0  <0>0        0.1528
     25  C19        1.2170   35.9050   56.8300 C.3     0  <0>0        0.0928
     26  C20        2.7190   36.1990   56.8330 C.3     0  <0>0        0.0231
@<TRIPOS>BOND
     1    16    15    1
     2    15    12    1
     3    12    11   ar
     4    12    13   ar
     5    11    10   ar
     6    13    14   ar
     7    10     9   ar
     8    14     9   ar
     9     9     6    1
    10    24    23    1
    11     6     5    2
    12    23    25    1
    13    23    21   am
    14    25    26    1
    15     5     4    1
    16     5     7    1
    17     4     3    1
    18    20    21    1
    19    20     8    1
    20    21    22    2
    21     7     8    2
    22     7     1    1
    23     3     2    1
    24     1     2    1
    25     1    17    1
    26    17    18    1
    27    18    19    1
