@<TRIPOS>MOLECULE
ZINC67369273_replica-1.pdb
 20 22 0 0 0
SMALL
GASTEIGER

@<TRIPOS>ATOM
      1  C1        12.4220   34.5780   62.9130 C.ar    0  <0>0        0.0098
      2  C2        11.9140   35.7850   62.4750 C.ar    0  <0>0        0.0371
      3  C3        10.8200   35.8150   61.6160 C.ar    0  <0>0        0.1361
      4  C4        10.2400   34.6280   61.2030 C.ar    0  <0>0        0.0306
      5  C5        10.7530   33.4200   61.6430 C.ar    0  <0>0        0.0070
      6  C6        11.8410   33.3930   62.4970 C.ar    0  <0>0        0.0345
      7 Br         12.5350   31.7390   63.0940 Br      0  <0>0       -0.0490
      8  C7         9.0460   34.6160   60.2830 C.3     0  <0>0        0.1074
      9  C8         8.9200   35.9730   59.5850 C.3     0  <0>0        0.0721
     10  C9         9.0400   37.0740   60.6460 C.3     0  <0>0        0.2075
     11  O1        10.3540   37.0220   61.2030 O.3     0  <0>0       -0.4757
     12  N1         9.2170   33.5650   59.2770 N.pl3   0  <0>0       -0.2751
     13  C10        8.3120   32.5200   59.2070 C.1     0  <0>0        0.0871
     14  N3         8.4820   31.5780   58.2910 N.2     0  <0>0       -0.2025
     15  N2         7.2950   32.4870   60.0560 N.2     0  <0>0       -0.1802
     16  C13        7.6390   30.5620   58.2020 C.3     0  <0>0        0.1721
     17  C12        6.5630   30.4970   59.0730 C.2     0  <0>0        0.0575
     18  C11        6.4130   31.5030   60.0160 C.2     0  <0>0        0.1151
     19 Br          5.3280   29.0680   58.9790 Br      0  <0>0       -0.0500
     20  H9         9.9640   33.6020   58.6590 H       0  <0>0        0.1586
@<TRIPOS>BOND
     1    16    14    1
     2    16    17    1
     3    14    13    2
     4    20    12    1
     5    19    17    1
     6    17    18    2
     7    13    12    1
     8    13    15    2
     9    12     8    1
    10     9     8    1
    11     9    10    1
    12    18    15    1
    13     8     4    1
    14    10    11    1
    15    11     3    1
    16     4     3   ar
    17     4     5   ar
    18     3     2   ar
    19     5     6   ar
    20     2     1   ar
    21     6     1   ar
    22     6     7    1
