@<TRIPOS>MOLECULE
ZINC20881568_replica-1.pdb
 37 41 0 0 0
SMALL
GASTEIGER

@<TRIPOS>ATOM
      1  C11        7.8770   32.7050   59.6870 C.3     0  <0>0        0.0356
      2  C12        6.9900   33.8470   59.1980 C.3     0  <0>0        0.0458
      3  C13        5.7310   33.2860   58.5570 C.2     0  <0>0        0.0262
      4  C14        5.1910   32.1410   59.0070 C.2     0  <0>0        0.0436
      5  C15        3.9360   31.4860   58.4810 C.3     0  <0>0        0.1186
      6  N1         3.4470   32.0410   57.2360 N.pl3   0  <0>0       -0.3262
      7  C16        2.9930   33.3560   57.1630 C.ar    0  <0>0        0.0586
      8  C17        1.6560   33.6470   56.9410 C.ar    0  <0>0        0.0156
      9  C18        1.2300   34.9630   56.9860 C.ar    0  <0>0        0.0013
     10  C19        2.1290   35.9810   57.2480 C.ar    0  <0>0        0.0014
     11  C20        3.4690   35.6960   57.4480 C.ar    0  <0>0        0.0158
     12  C21        3.8990   34.3820   57.3870 C.ar    0  <0>0        0.0614
     13  N2         5.2360   34.0300   57.5350 N.pl3   0  <0>0       -0.3150
     14  C29        5.8030   31.4340   60.0680 C.2     0  <0>0        0.1722
     15  O2         5.2800   30.4120   60.4690 O.2     0  <0>0       -0.2916
     16  C30        7.0740   31.8960   60.7130 C.3     0  <0>0        0.0736
     17  H18        3.4320   31.4220   56.3270 H       0  <0>0        0.1474
     18  H23        5.9080   34.3990   56.7480 H       0  <0>0        0.1520
     19  C8         9.1190   33.2620   60.3350 C.ar    0  <0>0       -0.0215
     20  C7         9.7550   32.5510   61.3360 C.ar    0  <0>0       -0.0011
     21  C6        10.8930   33.0600   61.9300 C.ar    0  <0>0        0.0366
     22  C5        11.3990   34.2850   61.5220 C.ar    0  <0>0        0.1385
     23  C10       10.7590   34.9970   60.5170 C.ar    0  <0>0        0.0366
     24  C9         9.6240   34.4810   59.9220 C.ar    0  <0>0       -0.0011
     25  O1        12.5180   34.7880   62.1050 O.3     0  <0>0       -0.4755
     26  C4        12.9070   34.2230   63.3600 C.3     0  <0>0        0.2053
     27  C2        14.1880   33.4060   63.1770 C.3     0  <0>0        0.0438
     28  C1        15.2610   33.9180   64.1380 C.3     0  <0>0        0.0038
     29  C3        13.8980   31.9330   63.4730 C.3     0  <0>0        0.0038
     30  C22        2.8540   31.6210   59.5210 C.ar    0  <0>0       -0.0002
     31  C27        1.9070   30.6230   59.6650 C.ar    0  <0>0       -0.0019
     32  C26        0.9150   30.7420   60.6170 C.ar    0  <0>0        0.0059
     33  C25        0.8680   31.8680   61.4320 C.ar    0  <0>0        0.0252
     34  C24        1.8210   32.8680   61.2840 C.ar    0  <0>0        0.0059
     35  C23        2.8130   32.7390   60.3330 C.ar    0  <0>0       -0.0019
     36  S1        -0.3980   32.0260   62.6480 S.3     0  <0>0       -0.1127
     37  C28       -0.3730   30.4330   63.5160 C.3     0  <0>0        0.0742
@<TRIPOS>BOND
     1    17     6    1
     2    18    13    1
     3     8     9   ar
     4     8     7   ar
     5     9    10   ar
     6     7     6    1
     7     7    12   ar
     8     6     5    1
     9    10    11   ar
    10    12    11   ar
    11    12    13    1
    12    13     3    1
    13     5     4    1
    14     5    30    1
    15     3     4    2
    16     3     2    1
    17     4    14    1
    18     2     1    1
    19    30    31   ar
    20    30    35   ar
    21    31    32   ar
    22     1    19    1
    23     1    16    1
    24    24    19   ar
    25    24    23   ar
    26    14    15    2
    27    14    16    1
    28    35    34   ar
    29    19    20   ar
    30    23    22   ar
    31    32    33   ar
    32    34    33   ar
    33    20    21   ar
    34    33    36    1
    35    22    21   ar
    36    22    25    1
    37    25    26    1
    38    36    37    1
    39    27    26    1
    40    27    29    1
    41    27    28    1
