@<TRIPOS>MOLECULE
ZINC52907103_replica-1.pdb
 20 21 0 0 0
SMALL
GASTEIGER

@<TRIPOS>ATOM
      1  C8         8.0470   36.6050   58.7770 C.ar    0  <0>0        0.0503
      2  C9         8.3810   37.9330   59.0090 C.ar    0  <0>0        0.0146
      3  C10        8.5410   38.8020   57.9500 C.ar    0  <0>0        0.0021
      4  C11        8.3710   38.3600   56.6470 C.ar    0  <0>0        0.0115
      5  C12        8.0390   37.0450   56.3950 C.ar    0  <0>0        0.0605
      6  C13        7.8800   36.1510   57.4590 C.ar    0  <0>0        0.0435
      7 Cl          7.8270   36.4990   54.7620 Cl      0  <0>0       -0.0821
      8  N1         7.8840   35.7290   59.8440 N.pl3   0  <0>0       -0.3091
      9  C2         6.6560   35.7690   60.6420 C.3     0  <0>0        0.0729
     10  C1         5.6580   36.7320   59.9960 C.3     0  <0>0        0.0214
     11  C3         6.0440   34.3680   60.7080 C.3     0  <0>0        0.0214
     12  C4         8.9390   34.7670   60.1710 C.3     0  <0>0        0.0907
     13  C5        10.2740   35.5020   60.3120 C.3     0  <0>0        0.0198
     14  C7        10.4970   36.3240   61.5830 C.3     0  <0>0        0.0018
     15  C6        11.2450   35.0040   61.3840 C.3     0  <0>0        0.0018
     16  C14        7.5330   34.7440   57.1990 C.2     0  <0>0        0.0801
     17  S1         5.8900   34.2720   57.0990 S.2     0  <0>0       -0.0351
     18  N2         8.5080   33.8270   57.0380 N.am    0  <0>0       -0.3517
     19  H18        9.4360   34.0790   57.1680 H       0  <0>0        0.1428
     20  H19        8.2820   32.9160   56.7940 H       0  <0>0        0.1428
@<TRIPOS>BOND
     1     7     5    1
     2     5     4   ar
     3     5     6   ar
     4     4     3   ar
     5    20    18    1
     6    18    19    1
     7    18    16    1
     8    17    16    2
     9    16     6    1
    10     6     1   ar
    11     3     2   ar
    12     1     2   ar
    13     1     8    1
    14     8    12    1
    15     8     9    1
    16    10     9    1
    17    12    13    1
    18    13    15    1
    19    13    14    1
    20     9    11    1
    21    15    14    1
