@<TRIPOS>MOLECULE
ZINC43889470_replica-1.pdb
 19 19 0 0 0
SMALL
GASTEIGER

@<TRIPOS>ATOM
      1  C7         8.2410   35.6940   58.7730 C.3     0  <0>0       -0.0434
      2  C8         6.7490   35.3580   58.7190 C.3     0  <0>0       -0.0195
      3  C9         5.9320   36.6470   58.8110 C.3     0  <0>0       -0.0020
      4  C10        6.5170   37.5470   59.9000 C.3     0  <0>0       -0.0001
      5  C11        7.1150   38.8010   59.2590 C.3     0  <0>0        0.0000
      6  C12        8.4520   38.4510   58.6040 C.3     0  <0>0        0.0013
      7  C13        8.1980   37.7060   57.2930 C.3     0  <0>0        0.0136
      8  C14        8.6850   36.2620   57.4230 C.3     0  <0>0        0.0350
      9  N1         9.0070   34.4770   59.0680 N.4     0  <0>0        0.3877
     10  C6         8.3380   33.7230   60.1360 C.3     0  <0>0       -0.1005
     11  H33        9.0640   33.9050   58.2380 H       0  <0>0       -0.0797
     12  C5        10.3620   34.8430   59.5020 C.3     0  <0>0       -0.0772
     13  C3        10.3800   35.0180   61.0230 C.3     0  <0>0       -0.0208
     14  C4        10.3710   36.5090   61.3650 C.3     0  <0>0       -0.0022
     15  C2        11.6430   34.3690   61.5950 C.3     0  <0>0       -0.0021
     16  C1        12.1820   35.2290   62.7400 C.3     0  <0>0       -0.0001
     17  N2         8.1110   35.4530   56.3390 N.3     0  <0>0       -0.2992
     18  C15        7.7460   36.2930   55.1910 C.3     0  <0>0        0.0858
     19  H29        8.7460   34.7180   56.0610 H       0  <0>0        0.1232
@<TRIPOS>BOND
     1    18    17    1
     2    19    17    1
     3    17     8    1
     4     7     8    1
     5     7     6    1
     6     8     1    1
     7    11     9    1
     8     6     5    1
     9     2     1    1
    10     2     3    1
    11     1     9    1
    12     3     4    1
    13     9    12    1
    14     9    10    1
    15     5     4    1
    16    12    13    1
    17    13    14    1
    18    13    15    1
    19    15    16    1
