@<TRIPOS>MOLECULE
ZINC66970841_replica-1.pdb
 25 27 0 0 0
SMALL
GASTEIGER

@<TRIPOS>ATOM
      1  C11       -0.9330   29.9070   56.8170 C.3     0  <0>0        0.1060
      2  C8        -0.8200   29.1040   55.5470 C.ar    0  <0>0       -0.0034
      3  C7         0.0820   28.0590   55.4690 C.ar    0  <0>0       -0.0030
      4  C6         0.1860   27.3210   54.3050 C.ar    0  <0>0       -0.0045
      5  C5        -0.6130   27.6260   53.2190 C.ar    0  <0>0       -0.0225
      6  C10       -1.5130   28.6740   53.2960 C.ar    0  <0>0       -0.0045
      7  C9        -1.6190   29.4100   54.4620 C.ar    0  <0>0       -0.0030
      8  C3        -0.5010   26.8220   51.9500 C.3     0  <0>0        0.0223
      9  C4        -1.7150   27.1020   51.0610 C.3     0  <0>0        0.0047
     10  C2        -0.4540   25.3320   52.2930 C.3     0  <0>0        0.0044
     11  C1        -0.5770   24.5090   51.0090 C.3     0  <0>0        0.0003
     12  C12       -1.3960   29.0120   57.9370 C.ar    0  <0>0        0.0257
     13  S1        -2.5760   27.6730   57.8940 S.2     0  <0>0       -0.0891
     14  C15       -2.4930   27.2080   59.6150 C.ar    0  <0>0        0.0352
     15  C14       -1.5900   28.0940   60.1020 C.ar    0  <0>0        0.0072
     16  C13       -1.0290   29.0190   59.2420 C.ar    0  <0>0        0.0043
     17  N1         0.3780   30.4760   57.1560 N.3     0  <0>0       -0.2862
     18  H19        0.6150   30.2920   58.1190 H       0  <0>0        0.1242
     19  C16        0.4170   31.9160   56.8700 C.3     0  <0>0        0.1174
     20  C17        0.4080   32.6860   58.1650 C.ar    0  <0>0        0.0958
     21  N3         0.0640   33.9410   58.3090 N.ar    0  <0>0       -0.1756
     22  N2         0.1890   34.2750   59.6640 N.ar    0  <0>0       -0.2746
     23  C19        0.6290   33.1830   60.3230 C.ar    0  <0>0        0.0921
     24  H3        -0.0020   35.1420   60.0580 H       0  <0>0        0.1890
     25  C18        0.7720   32.1860   59.4190 C.ar    0  <0>0        0.0378
@<TRIPOS>BOND
     1    11    10    1
     2     9     8    1
     3     8    10    1
     4     8     5    1
     5     5     6   ar
     6     5     4   ar
     7     6     7   ar
     8     4     3   ar
     9     7     2   ar
    10     3     2   ar
    11     2     1    1
    12     1    17    1
    13     1    12    1
    14    19    17    1
    15    19    20    1
    16    17    18    1
    17    13    12   ar
    18    13    14   ar
    19    12    16   ar
    20    20    21   ar
    21    20    25   ar
    22    21    22   ar
    23    16    15   ar
    24    25    23   ar
    25    14    15   ar
    26    22    24    1
    27    22    23   ar
