@<TRIPOS>MOLECULE
ZINC30398415_replica-1.pdb
 29 31 0 0 0
SMALL
GASTEIGER

@<TRIPOS>ATOM
      1  C4         1.5560   32.0560   56.6010 C.2     0  <0>0        0.2243
      2  O1         2.2660   31.4000   57.3340 O.2     0  <0>0       -0.2750
      3  N1         0.4570   31.5000   56.0540 N.am    0  <0>0       -0.3021
      4  H8        -0.1110   32.0250   55.4680 H       0  <0>0        0.1497
      5  C3         1.9030   33.4920   56.3030 C.3     0  <0>0        0.1045
      6  C2         1.5440   34.3640   57.5070 C.3     0  <0>0        0.0810
      7  C1         0.5800   35.4680   57.0680 C.3     0  <0>0        0.0218
      8  N2         0.9060   33.5390   58.5360 N.am    0  <0>0       -0.3020
      9  C17        1.3780   33.5500   59.7980 C.2     0  <0>0        0.2458
     10  O2         2.3340   34.2450   60.0830 O.2     0  <0>0       -0.2701
     11  H19        0.1430   32.9840   58.3080 H       0  <0>0        0.1497
     12  C18        0.7340   32.7160   60.8360 C.ar    0  <0>0        0.0534
     13  C23        0.5780   31.3440   60.6340 C.ar    0  <0>0        0.0045
     14  C22       -0.0190   30.5710   61.6090 C.ar    0  <0>0        0.0001
     15  C21       -0.4720   31.1550   62.7790 C.ar    0  <0>0        0.0000
     16  C20       -0.3250   32.5150   62.9820 C.ar    0  <0>0        0.0001
     17  C19        0.2760   33.2990   62.0180 C.ar    0  <0>0        0.0045
     18  C5         0.1190   30.1040   56.3430 C.3     0  <0>0        0.0941
     19  C6        -0.9950   30.0560   57.3900 C.3     0  <0>0        0.0262
     20  C7        -0.3470   29.4280   55.0800 C.ar    0  <0>0       -0.0045
     21  C16        0.0580   28.1560   54.8130 C.ar    0  <0>0       -0.0027
     22  C15       -0.3810   27.5200   53.6380 C.ar    0  <0>0       -0.0003
     23  C10       -1.2310   28.2190   52.7450 C.ar    0  <0>0       -0.0000
     24  C14        0.0110   26.2060   53.3310 C.ar    0  <0>0       -0.0000
     25  C9        -1.6230   29.5340   53.0530 C.ar    0  <0>0       -0.0003
     26  C11       -1.6640   27.5850   51.5680 C.ar    0  <0>0       -0.0000
     27  C8        -1.1830   30.1150   54.2020 C.ar    0  <0>0       -0.0027
     28  C12       -1.2630   26.3120   51.3030 C.ar    0  <0>0       -0.0000
     29  C13       -0.4290   25.6240   52.1810 C.ar    0  <0>0       -0.0000
@<TRIPOS>BOND
     1    28    26   ar
     2    28    29   ar
     3    26    23   ar
     4    29    24   ar
     5    23    25   ar
     6    23    22   ar
     7    25    27   ar
     8    24    22   ar
     9    22    21   ar
    10    27    20   ar
    11    21    20   ar
    12    20    18    1
    13     4     3    1
    14     3    18    1
    15     3     1   am
    16     5     1    1
    17     5     6    1
    18    18    19    1
    19     1     2    2
    20     7     6    1
    21     6     8    1
    22    11     8    1
    23     8     9   am
    24     9    10    2
    25     9    12    1
    26    13    12   ar
    27    13    14   ar
    28    12    17   ar
    29    14    15   ar
    30    17    16   ar
    31    15    16   ar
