@<TRIPOS>MOLECULE
ZINC01105509_replica-1.pdb
 30 34 0 0 0
SMALL
GASTEIGER

@<TRIPOS>ATOM
      1  N1         0.0300   30.2850   57.6910 N.am    0  <0>0       -0.2067
      2  C7         1.0050   30.6660   58.5400 C.2     0  <0>0        0.2459
      3  O1         1.4570   29.8810   59.3550 O.2     0  <0>0       -0.2733
      4  C8         1.5000   32.0050   58.4690 C.3     0  <0>0        0.1543
      5  C9         2.5500   32.6260   59.2920 C.2     0  <0>0       -0.0267
      6  C10        2.8450   33.9110   59.0330 C.2     0  <0>0        0.0023
      7  S1         1.7610   34.3730   57.7020 S.3     0  <0>0       -0.0639
      8  C11        0.9130   32.8290   57.4960 C.2     0  <0>0        0.1524
      9  N2        -0.0430   32.3920   56.6840 N.2     0  <0>0       -0.3773
     10  C12       -0.4870   31.1530   56.7710 C.2     0  <0>0        0.2207
     11  C21        3.9340   34.4350   59.9310 C.3     0  <0>0        0.0327
     12  C22        4.5960   33.1710   60.5190 C.3     0  <0>0        0.0096
     13  C23        3.4430   32.1490   60.4410 C.3     0  <0>0        0.0235
     14  S2        -1.7610   30.6090   55.6820 S.3     0  <0>0       -0.0580
     15  C13       -0.7820   30.2700   54.1980 C.3     0  <0>0        0.1348
     16  C14       -1.6400   29.5620   53.1820 C.2     0  <0>0        0.1844
     17  O2        -2.6240   30.1100   52.7320 O.2     0  <0>0       -0.2904
     18  C15       -1.2840   28.2070   52.7340 C.ar    0  <0>0        0.0357
     19  C20       -1.7560   27.7270   51.5070 C.ar    0  <0>0        0.0052
     20  C19       -1.4190   26.4570   51.0920 C.ar    0  <0>0        0.0297
     21  C18       -0.6150   25.6550   51.8880 C.ar    0  <0>0        0.1401
     22  C17       -0.1450   26.1250   53.1060 C.ar    0  <0>0        0.0297
     23  F1        -0.2880   24.4110   51.4760 F       0  <0>0       -0.2042
     24  C16       -0.4740   27.3920   53.5320 C.ar    0  <0>0        0.0052
     25  C4        -0.4620   28.9750   57.7520 C.ar    0  <0>0        0.0609
     26  C3        -1.6020   28.6920   58.4930 C.ar    0  <0>0        0.0153
     27  C2        -2.0830   27.3990   58.5510 C.ar    0  <0>0        0.0013
     28  C1        -1.4310   26.3860   57.8740 C.ar    0  <0>0        0.0001
     29  C6        -0.2960   26.6630   57.1350 C.ar    0  <0>0        0.0013
     30  C5         0.1880   27.9560   57.0680 C.ar    0  <0>0        0.0153
@<TRIPOS>BOND
     1    20    19   ar
     2    20    21   ar
     3    23    21    1
     4    19    18   ar
     5    21    22   ar
     6    17    16    2
     7    18    16    1
     8    18    24   ar
     9    22    24   ar
    10    16    15    1
    11    15    14    1
    12    14    10    1
    13     9    10    2
    14     9     8    2
    15    10     1    1
    16    30    29   ar
    17    30    25   ar
    18    29    28   ar
    19     8     7    1
    20     8     4    1
    21     1    25    1
    22     1     2   am
    23     7     6    1
    24    25    26   ar
    25    28    27   ar
    26     4     2    1
    27     4     5    1
    28    26    27   ar
    29     2     3    2
    30     6     5    2
    31     6    11    1
    32     5    13    1
    33    11    12    1
    34    13    12    1
