@<TRIPOS>MOLECULE
ZINC37876053_replica-1.pdb
 21 22 0 0 0
SMALL
GASTEIGER

@<TRIPOS>ATOM
      1  N1         7.3920   35.2190   58.0910 N.pl3   0  <0>0       -0.3304
      2  H5         6.4650   35.2600   58.3720 H       0  <0>0        0.1469
      3  C5         8.4120   35.5260   59.0000 C.ar    0  <0>0        0.0506
      4  C4         8.5350   36.8210   59.5020 C.ar    0  <0>0        0.0433
      5  C3         9.5480   37.1190   60.4020 C.ar    0  <0>0        0.0075
      6  C2        10.4310   36.1320   60.7990 C.ar    0  <0>0        0.0006
      7  C1        10.3100   34.8480   60.3010 C.ar    0  <0>0        0.0013
      8  C6         9.3030   34.5430   59.4040 C.ar    0  <0>0        0.0148
      9  S1         7.4070   38.0760   58.9960 S.3     0  <0>0       -0.0429
     10  C14        8.1400   38.7390   57.4750 C.3     0  <0>0        0.3707
     11  F1         9.0970   37.8420   56.9900 F       0  <0>0       -0.1852
     12  F2         7.1390   38.9170   56.5140 F       0  <0>0       -0.1852
     13  C7         7.7250   34.8350   56.7180 C.3     0  <0>0        0.1143
     14  C8         6.5960   35.2630   55.7800 C.3     0  <0>0        0.1062
     15  C13        6.0080   34.0300   55.0910 C.3     0  <0>0        0.0286
     16  C12        4.8780   34.4590   54.1540 C.3     0  <0>0        0.0025
     17  C11        3.7850   35.1620   54.9610 C.3     0  <0>0        0.0002
     18  C10        4.3720   36.3940   55.6490 C.3     0  <0>0        0.0025
     19  C9         5.5020   35.9660   56.5870 C.3     0  <0>0        0.0286
     20  O1         7.1090   36.1610   54.7930 O.3     0  <0>0       -0.3851
     21  H18        7.7870   36.7640   55.1260 H       0  <0>0        0.2103
@<TRIPOS>BOND
     1    16    17    1
     2    16    15    1
     3    20    21    1
     4    20    14    1
     5    17    18    1
     6    15    14    1
     7    18    19    1
     8    14    19    1
     9    14    13    1
    10    12    10    1
    11    13     1    1
    12    11    10    1
    13    10     9    1
    14     1     2    1
    15     1     3    1
    16     9     4    1
    17     3     8   ar
    18     3     4   ar
    19     8     7   ar
    20     4     5   ar
    21     7     6   ar
    22     5     6   ar
