@<TRIPOS>MOLECULE
ZINC58846074_replica-1.pdb
 34 38 0 0 0
SMALL
GASTEIGER

@<TRIPOS>ATOM
      1  C9         5.6930   35.6310   55.5090 C.ar    0  <0>0        0.1249
      2  C10        6.8300   36.0370   54.8340 C.ar    0  <0>0        0.0214
      3  C11        7.8340   36.6940   55.5160 C.ar    0  <0>0        0.0154
      4  C12        7.7020   36.9500   56.8760 C.ar    0  <0>0        0.0408
      5  C13        6.5570   36.5560   57.5520 C.ar    0  <0>0       -0.0080
      6  C14        5.5560   35.8940   56.8560 C.ar    0  <0>0        0.0171
      7  C15        6.3630   36.8480   59.0010 C.3     0  <0>0        0.0255
      8  C16        6.5770   35.6290   59.8600 C.3     0  <0>0        0.0045
      9  C17        7.1440   35.9650   60.9910 C.3     0  <0>0        0.0004
     10  C18        7.3950   37.4550   61.0480 C.3     0  <0>0        0.0023
     11  C19        7.3130   37.9010   59.5690 C.3     0  <0>0        0.0262
     12  C20        8.7070   37.8440   58.9800 C.3     0  <0>0        0.0921
     13  N2         8.7300   37.5970   57.5540 N.pl3   0  <0>0       -0.3308
     14  H21        9.5100   37.8750   57.0490 H       0  <0>0        0.1471
     15  S1         4.4130   34.7850   54.6430 S.O2    0  <0>0        0.0736
     16  O1         4.8050   34.7440   53.2770 O.2     0  <0>0       -0.1499
     17  O2         3.1850   35.3620   55.0660 O.2     0  <0>0       -0.1499
     18  N1         4.4110   33.2200   55.1810 N.pl3   0  <0>0       -0.2153
     19  H13        4.3580   32.4880   54.5460 H       0  <0>0        0.1737
     20  C8         4.4840   32.9500   56.5500 C.ar    0  <0>0        0.0608
     21  C3         5.6640   32.4690   57.1030 C.ar    0  <0>0       -0.0076
     22  C4         5.7360   32.2100   58.4570 C.ar    0  <0>0       -0.0030
     23  C5         4.6320   32.4250   59.2630 C.ar    0  <0>0       -0.0002
     24  C6         3.4530   32.8990   58.7150 C.ar    0  <0>0        0.0013
     25  C7         3.3760   33.1600   57.3610 C.ar    0  <0>0        0.0155
     26  C2         6.8670   32.2340   56.2250 C.3     0  <0>0        0.0277
     27  C1         8.0560   33.0310   56.7660 C.3     0  <0>0        0.0051
     28  C21        9.4850   36.7680   59.6940 C.ar    0  <0>0       -0.0037
     29  C26       10.0820   37.0390   60.9100 C.ar    0  <0>0        0.0087
     30  C25       10.7920   36.0500   61.5680 C.ar    0  <0>0        0.0574
     31  C24       10.9120   34.7940   61.0020 C.ar    0  <0>0        0.0114
     32 Cl         11.5350   36.3880   63.1000 Cl      0  <0>0       -0.0823
     33  C23       10.3190   34.5250   59.7830 C.ar    0  <0>0        0.0006
     34  C22        9.6060   35.5130   59.1290 C.ar    0  <0>0       -0.0026
@<TRIPOS>BOND
     1    16    15    2
     2    19    18    1
     3    15    17    2
     4    15    18    1
     5    15     1    1
     6     2     1   ar
     7     2     3   ar
     8    18    20    1
     9     1     6   ar
    10     3     4   ar
    11    26    27    1
    12    26    21    1
    13    20    21   ar
    14    20    25   ar
    15     6     5   ar
    16     4     5   ar
    17     4    13    1
    18    14    13    1
    19    21    22   ar
    20    25    24   ar
    21     5     7    1
    22    13    12    1
    23    22    23   ar
    24    24    23   ar
    25    12    11    1
    26    12    28    1
    27     7    11    1
    28     7     8    1
    29    34    28   ar
    30    34    33   ar
    31    11    10    1
    32    28    29   ar
    33    33    31   ar
    34     8     9    1
    35    29    30   ar
    36     9    10    1
    37    31    30   ar
    38    30    32    1
