@<TRIPOS>MOLECULE
ZINC37337444_replica-1.pdb
 19 21 0 0 0
SMALL
GASTEIGER

@<TRIPOS>ATOM
      1  C1        -0.4800   25.6460   52.0070 C.ar    0  <0>0        0.0000
      2  C2        -1.2380   26.4650   51.1790 C.ar    0  <0>0        0.0005
      3  C3        -1.5880   27.7290   51.6070 C.ar    0  <0>0        0.0065
      4  C4        -1.1800   28.1620   52.8520 C.ar    0  <0>0        0.0294
      5  C5        -0.4090   27.3490   53.7160 C.ar    0  <0>0        0.0036
      6  C6        -0.0710   26.0570   53.2350 C.ar    0  <0>0        0.0002
      7  C7        -0.0720   27.9320   54.9500 C.ar    0  <0>0        0.0020
      8  C8        -0.4880   29.1970   55.2400 C.ar    0  <0>0        0.1061
      9  S1        -1.3960   29.6620   53.7760 S.2     0  <0>0       -0.0807
     10  C10        0.7490   27.1610   55.9510 C.3     0  <0>0        0.0896
     11  S2        -0.3540   26.3340   57.1290 S.3     0  <0>0       -0.1024
     12  C11       -0.0570   24.6180   56.8600 C.ar    0  <0>0        0.0549
     13  S3        -0.4050   23.2340   57.9320 S.2     0  <0>0       -0.0802
     14  C14        0.2070   21.9330   56.8750 C.ar    0  <0>0        0.0359
     15  C13        0.6370   22.6260   55.7940 C.ar    0  <0>0        0.0080
     16  C12        0.5050   24.0030   55.7810 C.ar    0  <0>0        0.0132
     17  C9        -0.2480   29.9820   56.4540 C.2     0  <0>0        0.3934
     18  O1         0.7870   30.6250   56.5720 O.co2   0  <0>0       -0.2400
     19  O2        -1.0820   29.9930   57.3500 O.co2   0  <0>0       -0.2400
@<TRIPOS>BOND
     1     2     3   ar
     2     2     1   ar
     3     3     4   ar
     4     1     6   ar
     5     4     5   ar
     6     4     9   ar
     7     6     5   ar
     8     5     7   ar
     9     9     8   ar
    10     7     8   ar
    11     7    10    1
    12     8    17    1
    13    16    15   ar
    14    16    12   ar
    15    15    14   ar
    16    10    11    1
    17    17    18   ar
    18    17    19   ar
    19    12    11    1
    20    12    13   ar
    21    14    13   ar
