@<TRIPOS>MOLECULE
ZINC49927887_replica-1.pdb
 25 26 0 0 0
SMALL
GASTEIGER

@<TRIPOS>ATOM
      1  C11        8.5590   37.4610   59.2020 C.3     0  <0>0        0.1344
      2  C8         9.5080   36.6450   60.0410 C.ar    0  <0>0        0.0043
      3  C7         9.9480   37.1320   61.2580 C.ar    0  <0>0       -0.0023
      4  C6        10.8180   36.3820   62.0280 C.ar    0  <0>0       -0.0045
      5  C5        11.2470   35.1470   61.5820 C.ar    0  <0>0       -0.0228
      6  C10       10.8100   34.6620   60.3630 C.ar    0  <0>0       -0.0045
      7  C9         9.9380   35.4100   59.5950 C.ar    0  <0>0       -0.0023
      8  C2        12.1950   34.3300   62.4210 C.3     0  <0>0        0.0189
      9  C1        11.5940   32.9450   62.6680 C.3     0  <0>0        0.0044
     10  C3        12.4260   35.0330   63.7610 C.3     0  <0>0        0.0044
     11  C4        13.5290   34.1830   61.6870 C.3     0  <0>0        0.0044
     12  C12        7.9890   36.5880   58.0830 C.3     0  <0>0        0.0550
     13  C13        6.4610   36.5830   58.1670 C.3     0  <0>0        0.0899
     14  N1         6.0220   35.4750   59.0190 N.pl3   0  <0>0       -0.3326
     15  H19        6.6780   34.9270   59.4770 H       0  <0>0        0.1468
     16  C14        4.6570   35.2070   59.1700 C.ar    0  <0>0        0.0448
     17  C19        4.2400   34.1610   59.9820 C.ar    0  <0>0        0.0174
     18  C18        2.8930   33.9000   60.1350 C.ar    0  <0>0        0.0382
     19  C17        1.9560   34.6760   59.4700 C.ar    0  <0>0        0.1388
     20  C16        2.3720   35.7180   58.6540 C.ar    0  <0>0        0.0382
     21  C15        3.7190   35.9840   58.5040 C.ar    0  <0>0        0.0174
     22  O1         0.6300   34.4160   59.6170 O.3     0  <0>0       -0.4714
     23  C20        0.1590   34.1800   60.9460 C.3     0  <0>0        0.2525
     24  O2         7.4910   37.9420   60.0210 O.3     0  <0>0       -0.3800
     25  H27        6.6110   37.6970   59.7050 H       0  <0>0        0.2108
@<TRIPOS>BOND
     1    12    13    1
     2    12     1    1
     3    13    14    1
     4    21    20   ar
     5    21    16   ar
     6    20    19   ar
     7    14    16    1
     8    14    15    1
     9    16    17   ar
    10     1    24    1
    11     1     2    1
    12    19    22    1
    13    19    18   ar
    14     7     2   ar
    15     7     6   ar
    16    22    23    1
    17    25    24    1
    18    17    18   ar
    19     2     3   ar
    20     6     5   ar
    21     3     4   ar
    22     5     4   ar
    23     5     8    1
    24    11     8    1
    25     8     9    1
    26     8    10    1
