@<TRIPOS>MOLECULE
ZINC37779667_replica-1.pdb
 22 24 0 0 0
SMALL
GASTEIGER

@<TRIPOS>ATOM
      1  C9         9.0240   35.8400   58.3080 C.ar    0  <0>0        0.0447
      2  C10        8.7630   37.1500   58.6920 C.ar    0  <0>0        0.0143
      3  C11        9.1740   37.6070   59.9300 C.ar    0  <0>0        0.0014
      4  C12        9.8460   36.7650   60.7930 C.ar    0  <0>0        0.0032
      5  C13       10.1140   35.4480   60.4170 C.ar    0  <0>0        0.0374
      6  C14        9.6940   34.9850   59.1700 C.ar    0  <0>0        0.0174
      7  N1         8.6080   35.3830   57.0550 N.pl3   0  <0>0       -0.3340
      8  H12        9.0940   34.6710   56.6120 H       0  <0>0        0.1468
      9  C2         7.4330   35.9780   56.4120 C.3     0  <0>0        0.0695
     10  C1         7.8140   36.4770   55.0160 C.3     0  <0>0        0.0212
     11  C3         6.3290   34.9270   56.2930 C.3     0  <0>0        0.0274
     12  C4         5.1200   35.3600   57.1250 C.3     0  <0>0        0.0662
     13  C5         5.4930   35.3690   58.5850 C.ar    0  <0>0        0.1230
     14  O1         6.1060   34.3720   59.2450 O.2     0  <0>0       -0.4547
     15  C8         6.2840   34.7260   60.5280 C.ar    0  <0>0        0.1791
     16  C7         5.7730   35.9580   60.7030 C.ar    0  <0>0        0.0434
     17  C6         5.2640   36.3720   59.4510 C.ar    0  <0>0        0.0362
     18  C15       10.8340   34.5450   61.3390 C.ar    0  <0>0        0.1664
     19  O2        10.5420   33.2490   61.5890 O.2     0  <0>0       -0.4311
     20  C17       11.4350   32.7940   62.4780 C.ar    0  <0>0        0.2851
     21  N2        12.2540   33.7600   62.7900 N.ar    0  <0>0       -0.2026
     22  C16       11.9110   34.8590   62.1030 C.ar    0  <0>0        0.1396
@<TRIPOS>BOND
     1    10     9    1
     2    11     9    1
     3    11    12    1
     4     9     7    1
     5     8     7    1
     6     7     1    1
     7    12    13    1
     8     1     2   ar
     9     1     6   ar
    10    13    14   ar
    11    13    17   ar
    12     2     3   ar
    13     6     5   ar
    14    14    15   ar
    15    17    16   ar
    16     3     4   ar
    17     5     4   ar
    18     5    18    1
    19    15    16   ar
    20    18    19   ar
    21    18    22   ar
    22    19    20   ar
    23    22    21   ar
    24    20    21   ar
