@<TRIPOS>MOLECULE
ZINC02963480_replica-1.pdb
 26 29 0 0 0
SMALL
GASTEIGER

@<TRIPOS>ATOM
      1  N1         6.5040   35.1570   57.3670 N.am    0  <0>0       -0.2415
      2  C9         7.0350   33.9530   57.6310 C.2     0  <0>0        0.1410
      3  S1         5.9850   32.6410   57.9550 S.2     0  <0>0       -0.0182
      4  N2         8.3610   33.7400   57.6470 N.am    0  <0>0       -0.3133
      5  C10        9.2850   34.8690   57.4460 C.3     0  <0>0        0.1014
      6  C11        8.6540   35.8050   56.4040 C.3     0  <0>0        0.0846
      7  C12        7.3270   36.3040   56.9970 C.3     0  <0>0        0.2011
      8  O2         7.6130   37.1140   58.1340 O.3     0  <0>0       -0.4656
      9  C13        8.5360   36.6800   59.0300 C.ar    0  <0>0        0.1378
     10  C14        9.3760   35.6160   58.7590 C.ar    0  <0>0        0.0305
     11  C15       10.3160   35.2170   59.6910 C.ar    0  <0>0        0.0117
     12  C16       10.4170   35.8780   60.9030 C.ar    0  <0>0        0.0576
     13  C17        9.5750   36.9410   61.1810 C.ar    0  <0>0        0.0145
     14  C18        8.6370   37.3410   60.2510 C.ar    0  <0>0        0.0376
     15 Cl         11.5980   35.3750   62.0720 Cl      0  <0>0       -0.0823
     16  C19        6.5930   37.1400   55.9480 C.3     0  <0>0        0.0659
     17  H11        8.7090   32.8460   57.7910 H       0  <0>0        0.1487
     18  C6         5.1140   35.3190   57.4520 C.ar    0  <0>0        0.0560
     19  C5         4.5450   35.8380   58.6080 C.ar    0  <0>0        0.0181
     20  C4         3.1760   35.9970   58.6910 C.ar    0  <0>0        0.0382
     21  C3         2.3690   35.6370   57.6220 C.ar    0  <0>0        0.1386
     22  C8         2.9380   35.1190   56.4670 C.ar    0  <0>0        0.0382
     23  C7         4.3070   34.9650   56.3800 C.ar    0  <0>0        0.0181
     24  O1         1.0210   35.7940   57.7040 O.3     0  <0>0       -0.4755
     25  C2         0.2210   34.6200   57.5490 C.3     0  <0>0        0.2055
     26  C1         0.3010   33.7760   58.8230 C.3     0  <0>0        0.0512
@<TRIPOS>BOND
     1    16     7    1
     2    23    22   ar
     3    23    18   ar
     4     6     7    1
     5     6     5    1
     6    22    21   ar
     7     7     1    1
     8     7     8    1
     9     1    18    1
    10     1     2    1
    11     5     4    1
    12     5    10    1
    13    18    19   ar
    14    25    24    1
    15    25    26    1
    16    21    24    1
    17    21    20   ar
    18     2     4    1
    19     2     3    2
    20     4    17    1
    21     8     9    1
    22    19    20   ar
    23    10     9   ar
    24    10    11   ar
    25     9    14   ar
    26    11    12   ar
    27    14    13   ar
    28    12    13   ar
    29    12    15    1
