@<TRIPOS>MOLECULE
ZINC45331748_replica-1.pdb
 21 21 0 0 0
SMALL
GASTEIGER

@<TRIPOS>ATOM
      1  C4         7.8420   34.9870   57.4460 C.3     0  <0>0        0.1223
      2  C5         7.2320   35.6980   56.2350 C.3     0  <0>0        0.0314
      3  C17        8.0600   33.5680   57.1240 C.1     0  <0>0        0.0860
      4  N2         8.2270   32.4720   56.8750 N.1     0  <0>0       -0.1946
      5  N1         6.9260   35.0960   58.5900 N.3     0  <0>0       -0.2896
      6  H8         7.4350   35.1130   59.4610 H       0  <0>0        0.1240
      7  C2         6.0610   36.2760   58.4610 C.3     0  <0>0        0.0547
      8  C1         4.6030   35.8650   58.6750 C.3     0  <0>0        0.0171
      9  C3         6.4570   37.3160   59.5100 C.3     0  <0>0        0.0171
     10  C6         9.1790   35.6410   57.8000 C.3     0  <0>0        0.0291
     11  C7         9.6790   35.0870   59.1360 C.3     0  <0>0        0.0050
     12  C8         9.9400   36.2450   60.1020 C.3     0  <0>0        0.0321
     13  C9        10.7140   35.7310   61.3170 C.3     0  <0>0        0.1420
     14  O1        10.5750   34.3110   61.4040 O.3     0  <0>0       -0.3563
     15  C10       11.3920   33.7070   62.4090 C.3     0  <0>0        0.1152
     16  C16       11.1000   32.2820   62.4600 C.3     0  <0>0        0.0296
     17  C15       11.8940   31.5590   63.5670 C.3     0  <0>0        0.0025
     18  C14       13.2890   31.3040   63.0670 C.3     0  <0>0        0.0001
     19  C13       14.2770   32.4120   63.4800 C.3     0  <0>0        0.0001
     20  C12       13.6780   33.8260   63.3460 C.3     0  <0>0        0.0025
     21  C11       12.8720   33.9920   62.0850 C.3     0  <0>0        0.0296
@<TRIPOS>BOND
     1     2     1    1
     2     4     3    3
     3     3     1    1
     4     1    10    1
     5     1     5    1
     6    10    11    1
     7     7     5    1
     8     7     8    1
     9     7     9    1
    10     5     6    1
    11    11    12    1
    12    12    13    1
    13    13    14    1
    14    14    15    1
    15    21    15    1
    16    21    20    1
    17    15    16    1
    18    16    17    1
    19    18    19    1
    20    18    17    1
    21    20    19    1
