@<TRIPOS>MOLECULE
ZINC66183447_replica-1.pdb
 21 22 0 0 0
SMALL
GASTEIGER

@<TRIPOS>ATOM
      1  C7        -3.0940   30.3210   54.3750 C.3     0  <0>0        0.1086
      2  N1        -2.4280   30.7200   55.6170 N.pl3   0  <0>0       -0.3306
      3  H4        -2.1460   31.6400   55.7420 H       0  <0>0        0.1469
      4  C3        -2.1960   29.7750   56.6200 C.ar    0  <0>0        0.0562
      5  C2        -2.9680   28.6230   56.6820 C.ar    0  <0>0        0.0152
      6  C1        -2.7380   27.6900   57.6750 C.ar    0  <0>0        0.0022
      7  C6        -1.7390   27.9010   58.6060 C.ar    0  <0>0        0.0123
      8  C5        -0.9660   29.0480   58.5490 C.ar    0  <0>0        0.0694
      9  C4        -1.1920   29.9860   57.5570 C.ar    0  <0>0        0.0812
     10 Cl          0.2880   29.3100   59.7210 Cl      0  <0>0       -0.0813
     11 Cl         -0.2230   31.4250   57.4850 Cl      0  <0>0       -0.0801
     12  C8        -2.0660   30.2530   53.2440 C.3     0  <0>0        0.1085
     13  N2        -0.9490   29.3960   53.6510 N.pl3   0  <0>0       -0.3313
     14  H9        -0.2940   29.7210   54.2880 H       0  <0>0        0.1469
     15  C9        -0.8270   28.1080   53.1210 C.ar    0  <0>0        0.0448
     16  C14       -0.1020   27.1400   53.8030 C.ar    0  <0>0        0.0166
     17  C13        0.0130   25.8670   53.2800 C.ar    0  <0>0        0.0309
     18  C12       -0.5840   25.5590   52.0700 C.ar    0  <0>0        0.1402
     19  C11       -1.3030   26.5230   51.3850 C.ar    0  <0>0        0.0309
     20  F1        -0.4660   24.3150   51.5570 F       0  <0>0       -0.2042
     21  C10       -1.4260   27.7960   51.9070 C.ar    0  <0>0        0.0166
@<TRIPOS>BOND
     1    19    21   ar
     2    19    18   ar
     3    20    18    1
     4    21    15   ar
     5    18    17   ar
     6    15    13    1
     7    15    16   ar
     8    12    13    1
     9    12     1    1
    10    17    16   ar
    11    13    14    1
    12     1     2    1
    13     2     3    1
    14     2     4    1
    15     4     5   ar
    16     4     9   ar
    17     5     6   ar
    18    11     9    1
    19     9     8   ar
    20     6     7   ar
    21     8     7   ar
    22     8    10    1
