@<TRIPOS>MOLECULE
ZINC17299752_replica-1.pdb
 27 29 0 0 0
SMALL
GASTEIGER

@<TRIPOS>ATOM
      1  C4         6.7960   35.9210   57.0770 C.2     0  <0>0        0.0899
      2  C5         5.6960   35.1670   57.3470 C.2     0  <0>0        0.0425
      3  N1         5.7890   34.5980   58.5800 N.am    0  <0>0       -0.2374
      4  C6         6.9380   34.9350   59.1930 C.2     0  <0>0        0.2565
      5  O3         7.3010   34.5810   60.3000 O.2     0  <0>0       -0.2692
      6  C7         7.6780   35.8100   58.2660 C.2     0  <0>0        0.0613
      7  C8         8.8980   36.3900   58.4580 C.2     0  <0>0        0.0048
      8  C22        4.5320   34.9860   56.4080 C.3     0  <0>0        0.0481
      9  C3         7.0600   36.6840   55.8520 C.2     0  <0>0        0.3423
     10  O2         7.5850   36.1440   54.8990 O.2     0  <0>0       -0.2449
     11  O1         6.7190   37.9870   55.7840 O.3     0  <0>0       -0.4454
     12  C2         7.7260   38.9400   56.1310 C.3     0  <0>0        0.2089
     13  C1         7.5490   39.3610   57.5910 C.3     0  <0>0        0.0513
     14  C9         9.7070   36.0290   59.6290 C.ar    0  <0>0        0.0001
     15  C14       10.3910   34.8080   59.6630 C.ar    0  <0>0       -0.0003
     16  C13       11.1520   34.4790   60.7640 C.ar    0  <0>0       -0.0043
     17  C12       11.2310   35.3470   61.8390 C.ar    0  <0>0       -0.0218
     18  C11       10.5530   36.5540   61.8170 C.ar    0  <0>0       -0.0043
     19  C15       12.0610   34.9760   63.0420 C.3     0  <0>0        0.0310
     20  C10        9.7920   36.9000   60.7210 C.ar    0  <0>0       -0.0003
     21  C16        4.8100   33.7670   59.1420 C.ar    0  <0>0        0.0581
     22  C21        4.8930   32.3900   58.9850 C.ar    0  <0>0        0.0157
     23  C20        3.9300   31.5730   59.5440 C.ar    0  <0>0        0.0080
     24  C19        2.8770   32.1260   60.2500 C.ar    0  <0>0        0.0346
     25  C18        2.7880   33.4990   60.4030 C.ar    0  <0>0        0.0080
     26 Br          1.5560   31.0050   61.0080 Br      0  <0>0       -0.0490
     27  C17        3.7510   34.3200   59.8510 C.ar    0  <0>0        0.0157
@<TRIPOS>BOND
     1    10     9    2
     2    11     9    1
     3    11    12    1
     4     9     1    1
     5    12    13    1
     6     8     2    1
     7     1     2    2
     8     1     6    1
     9     2     3    1
    10     6     7    2
    11     6     4    1
    12     7    14    1
    13     3    21    1
    14     3     4   am
    15    22    21   ar
    16    22    23   ar
    17    21    27   ar
    18     4     5    2
    19    23    24   ar
    20    14    15   ar
    21    14    20   ar
    22    15    16   ar
    23    27    25   ar
    24    24    25   ar
    25    24    26    1
    26    20    18   ar
    27    16    17   ar
    28    18    17   ar
    29    17    19    1
