@<TRIPOS>MOLECULE
ZINC01001446_replica-1.pdb
 28 29 0 0 0
SMALL
GASTEIGER

@<TRIPOS>ATOM
      1  C4         0.5890   30.3940   57.0120 C.2     0  <0>0        0.2589
      2  O1         0.6410   30.4820   58.2220 O.2     0  <0>0       -0.2716
      3  N1         1.4070   31.1410   56.2470 N.am    0  <0>0       -0.2045
      4  H7         1.3660   31.0700   55.2800 H       0  <0>0        0.1773
      5  C3        -0.3900   29.4470   56.3680 C.3     0  <0>0        0.1482
      6  C2        -1.8090   29.7890   56.8260 C.3     0  <0>0        0.0290
      7  C1        -2.6710   28.5250   56.8050 C.3     0  <0>0        0.0023
      8  N4        -0.3050   29.5720   54.9100 N.pl3   0  <0>0       -0.3272
      9  H19       -0.1990   30.4470   54.5040 H       0  <0>0        0.1472
     10  C14       -0.3740   28.4330   54.1060 C.ar    0  <0>0        0.0409
     11  C19       -1.2100   28.4150   52.9960 C.ar    0  <0>0       -0.0090
     12  C18       -1.2760   27.2860   52.2020 C.ar    0  <0>0       -0.0073
     13  C20       -2.0420   29.6250   52.6580 C.3     0  <0>0        0.0323
     14  C17       -0.5180   26.1730   52.5150 C.ar    0  <0>0       -0.0221
     15  C16        0.3200   26.1910   53.6160 C.ar    0  <0>0       -0.0030
     16  C21       -0.5980   24.9420   51.6500 C.3     0  <0>0        0.0310
     17  C15        0.3910   27.3150   54.4130 C.ar    0  <0>0        0.0137
     18  N2         2.3180   32.0210   56.8460 N.2     0  <0>0       -0.1776
     19  C5         2.4860   33.2120   56.3580 C.2     0  <0>0        0.1176
     20  C6         3.4450   34.1380   56.9890 C.ar    0  <0>0        0.0208
     21  C11        3.0140   35.0250   57.9790 C.ar    0  <0>0        0.0029
     22  C10        3.9120   35.8890   58.5660 C.ar    0  <0>0        0.0146
     23  C9         5.2470   35.8780   58.1740 C.ar    0  <0>0        0.0479
     24  C8         5.6780   34.9970   57.1890 C.ar    0  <0>0        0.0146
     25  C7         4.7880   34.1270   56.6010 C.ar    0  <0>0        0.0029
     26  N3         6.1540   36.7540   58.7710 N.pl3   0  <0>0       -0.3041
     27  C12        7.3640   37.1590   58.0520 C.3     0  <0>0        0.1122
     28  C13        5.8950   37.2700   60.1180 C.3     0  <0>0        0.1122
@<TRIPOS>BOND
     1    16    14    1
     2    12    14   ar
     3    12    11   ar
     4    14    15   ar
     5    13    11    1
     6    11    10   ar
     7    15    17   ar
     8    10    17   ar
     9    10     8    1
    10     9     8    1
    11     8     5    1
    12     4     3    1
    13     3    18    1
    14     3     1   am
    15    19    18    2
    16    19    20    1
    17     5     6    1
    18     5     1    1
    19    25    20   ar
    20    25    24   ar
    21     7     6    1
    22    20    21   ar
    23     1     2    2
    24    24    23   ar
    25    21    22   ar
    26    27    26    1
    27    23    22   ar
    28    23    26    1
    29    26    28    1
