@<TRIPOS>MOLECULE
ZINC04715823_replica-1.pdb
 28 32 0 0 0
SMALL
GASTEIGER

@<TRIPOS>ATOM
      1  C2        -0.8780   25.8280   57.5820 C.ar    0  <0>0        0.1722
      2  C3        -1.9650   25.7820   58.4360 C.ar    0  <0>0        0.0400
      3  C4        -2.7930   26.8810   58.5650 C.ar    0  <0>0        0.0030
      4  C5        -2.5440   28.0180   57.8200 C.ar    0  <0>0        0.0006
      5  C6        -1.4640   28.0680   56.9580 C.ar    0  <0>0        0.0348
      6  C7        -0.6100   26.9820   56.8380 C.ar    0  <0>0        0.1722
      7  O2         0.4980   26.9750   56.0530 O.3     0  <0>0       -0.4523
      8  C8         0.6790   27.9880   55.0570 C.3     0  <0>0        0.2836
      9  N1         0.1540   29.2320   55.6340 N.pl3   0  <0>0       -0.1912
     10  C9        -1.2390   29.3060   56.1300 C.3     0  <0>0        0.1263
     11  C10       -1.2250   30.5770   56.9920 C.3     0  <0>0        0.0740
     12  C11        0.0960   31.2310   56.6410 C.2     0  <0>0        0.0842
     13  N2         0.7820   30.4380   55.8790 N.2     0  <0>0       -0.1826
     14  C16       -0.0870   27.6290   53.8100 C.ar    0  <0>0        0.0411
     15  C21       -0.0040   26.3500   53.2920 C.ar    0  <0>0        0.0330
     16  C20       -0.7100   26.0190   52.1490 C.ar    0  <0>0        0.1672
     17  C19       -1.4930   26.9730   51.5190 C.ar    0  <0>0        0.1674
     18  F1        -0.6320   24.7670   51.6450 F       0  <0>0       -0.2018
     19  C18       -1.5710   28.2550   52.0370 C.ar    0  <0>0        0.0318
     20  F2        -2.1800   26.6520   50.4010 F       0  <0>0       -0.2018
     21  C17       -0.8670   28.5810   53.1800 C.ar    0  <0>0        0.0034
     22  O1        -0.0640   24.7460   57.4660 O.3     0  <0>0       -0.4684
     23  C1        -0.4220   23.5810   58.2110 C.3     0  <0>0        0.2526
     24  C12        0.5310   32.5580   57.0930 C.ar    0  <0>0        0.0446
     25  S1         2.0060   33.4670   56.6640 S.2     0  <0>0       -0.0852
     26  C15        1.7030   34.9250   57.6500 C.ar    0  <0>0        0.0355
     27  C14        0.5130   34.6340   58.2360 C.ar    0  <0>0        0.0075
     28  C13       -0.1000   33.4340   57.9590 C.ar    0  <0>0        0.0082
@<TRIPOS>BOND
     1    20    17    1
     2    17    19   ar
     3    17    16   ar
     4    18    16    1
     5    19    21   ar
     6    16    15   ar
     7    21    14   ar
     8    15    14   ar
     9    14     8    1
    10     8     9    1
    11     8     7    1
    12     9    13    1
    13     9    10    1
    14    13    12    2
    15     7     6    1
    16    10     5    1
    17    10    11    1
    18    12    11    1
    19    12    24    1
    20    25    24   ar
    21    25    26   ar
    22     6     5   ar
    23     6     1   ar
    24     5     4   ar
    25    24    28   ar
    26    22     1    1
    27    22    23    1
    28     1     2   ar
    29    26    27   ar
    30     4     3   ar
    31    28    27   ar
    32     2     3   ar
