@<TRIPOS>MOLECULE
ZINC21816164_replica-1.pdb
 21 22 0 0 0
SMALL
GASTEIGER

@<TRIPOS>ATOM
      1  C1        11.4230   31.2400   63.4690 C.ar    0  <0>0       -0.0001
      2  C2        12.5760   30.6860   63.9950 C.ar    0  <0>0        0.0031
      3  C3        13.7810   31.3500   63.8710 C.ar    0  <0>0        0.0369
      4  C4        13.8330   32.5780   63.2270 C.ar    0  <0>0        0.1444
      5  C5        12.6750   33.1300   62.6990 C.ar    0  <0>0        0.0316
      6  C6        11.4730   32.4600   62.8210 C.ar    0  <0>0        0.0004
      7  C7        12.7290   34.4610   61.9930 C.3     0  <0>0        0.1173
      8  N1        11.4860   35.1950   62.2410 N.pl3   0  <0>0       -0.3290
      9  H7        11.1730   35.4160   63.2730 H       0  <0>0        0.1471
     10  C8        10.6950   35.6160   61.1670 C.ar    0  <0>0        0.0450
     11  C13       10.5260   34.7920   60.0620 C.ar    0  <0>0        0.0166
     12  C12        9.7430   35.2100   59.0040 C.ar    0  <0>0        0.0309
     13  C11        9.1280   36.4490   59.0430 C.ar    0  <0>0        0.1402
     14  C10        9.2940   37.2730   60.1450 C.ar    0  <0>0        0.0309
     15  F1         8.3630   36.8560   58.0070 F       0  <0>0       -0.2042
     16  C9        10.0720   36.8570   61.2070 C.ar    0  <0>0        0.0166
     17  O1        15.0160   33.2350   63.1080 O.3     0  <0>0       -0.4047
     18  C14       15.5190   33.8810   64.2790 C.3     0  <0>0        0.5753
     19  F2        16.6980   34.5650   63.9650 F       0  <0>0       -0.1328
     20  F3        15.7840   32.9220   65.2630 F       0  <0>0       -0.1328
     21  F4        14.5670   34.7890   64.7560 F       0  <0>0       -0.1328
@<TRIPOS>BOND
     1    15    13    1
     2    12    13   ar
     3    12    11   ar
     4    13    14   ar
     5    11    10   ar
     6    14    16   ar
     7    10    16   ar
     8    10     8    1
     9     7     8    1
    10     7     5    1
    11     8     9    1
    12     5     6   ar
    13     5     4   ar
    14     6     1   ar
    15    17     4    1
    16    17    18    1
    17     4     3   ar
    18     1     2   ar
    19     3     2   ar
    20    19    18    1
    21    18    21    1
    22    18    20    1
