@<TRIPOS>MOLECULE
ZINC03190130_replica-1.pdb
 22 22 0 0 0
SMALL
GASTEIGER

@<TRIPOS>ATOM
      1  C4         9.7270   35.8110   60.6440 C.ar    0  <0>0        0.0537
      2  C5        10.8880   35.5650   61.3770 C.ar    0  <0>0        0.0003
      3  C6        11.1810   34.2820   61.7920 C.ar    0  <0>0       -0.0229
      4  C7        10.3260   33.2370   61.4840 C.ar    0  <0>0       -0.0056
      5  C8         9.1720   33.4690   60.7580 C.ar    0  <0>0        0.0106
      6  C9         8.8640   34.7520   60.3340 C.ar    0  <0>0        0.1310
      7  C3         9.4070   37.1800   60.1990 C.2     0  <0>0        0.1201
      8  N2         9.0070   37.3910   58.9830 N.2     0  <0>0       -0.1838
      9  N1         8.7050   38.6920   58.5600 N.pl3   0  <0>0       -0.2572
     10  H6         8.7340   39.4270   59.1930 H       0  <0>0        0.1688
     11  C2         8.3440   38.9430   57.1630 C.3     0  <0>0        0.1066
     12  C1         7.9720   37.6210   56.4880 C.3     0  <0>0        0.0246
     13  O1         7.7310   34.9800   59.6210 O.3     0  <0>0       -0.5058
     14  H10        7.0090   34.3700   59.8230 H       0  <0>0        0.2922
     15  C10        8.2480   32.3250   60.4280 C.3     0  <0>0        0.0218
     16  C11        6.7980   32.8100   60.4880 C.3     0  <0>0        0.0045
     17  C12        8.5560   31.8090   59.0220 C.3     0  <0>0        0.0045
     18  C13        8.4510   31.1980   61.4430 C.3     0  <0>0        0.0045
     19  C14       12.4340   34.0160   62.5830 C.3     0  <0>0        0.0189
     20  C15       13.6550   34.1850   61.6770 C.3     0  <0>0        0.0044
     21  C16       12.5230   35.0060   63.7470 C.3     0  <0>0        0.0044
     22  C17       12.3990   32.5880   63.1310 C.3     0  <0>0        0.0044
@<TRIPOS>BOND
     1    12    11    1
     2    11     9    1
     3     9     8    1
     4     9    10    1
     5     8     7    2
     6    17    15    1
     7    13    14    1
     8    13     6    1
     9     7     1    1
    10     6     1   ar
    11     6     5   ar
    12    15    16    1
    13    15     5    1
    14    15    18    1
    15     1     2   ar
    16     5     4   ar
    17     2     3   ar
    18     4     3   ar
    19    20    19    1
    20     3    19    1
    21    19    22    1
    22    19    21    1
