@<TRIPOS>MOLECULE
ZINC04189777_replica-1.pdb
 28 32 0 0 0
SMALL
GASTEIGER

@<TRIPOS>ATOM
      1  C8        -0.1550   28.8410   56.2360 C.3     0  <0>0        0.0716
      2  C9        -0.8890   29.1230   54.9580 C.ar    0  <0>0        0.0007
      3  C10       -0.8280   28.2070   53.8950 C.ar    0  <0>0        0.0155
      4  C11       -0.0870   27.0140   54.0030 C.ar    0  <0>0        0.0028
      5  C12       -0.0680   26.1680   52.9300 C.ar    0  <0>0        0.0207
      6  C13       -0.7720   26.4970   51.7740 C.ar    0  <0>0        0.0988
      7  N1        -1.4630   27.6060   51.6790 N.ar    0  <0>0       -0.2438
      8  C14       -1.5230   28.4770   52.6910 C.ar    0  <0>0        0.0811
      9  C15       -2.2690   29.6640   52.5800 C.ar    0  <0>0        0.0203
     10  C16       -2.3120   30.5390   53.6190 C.ar    0  <0>0        0.0158
     11  C17       -1.6280   30.2770   54.8120 C.ar    0  <0>0        0.0447
     12  N2        -1.6860   31.1930   55.8630 N.pl3   0  <0>0       -0.3162
     13  C18       -0.7300   31.1880   56.8390 C.2     0  <0>0        0.0246
     14  C19        0.0360   30.0960   57.0500 C.2     0  <0>0        0.0296
     15  C20        1.0380   30.0960   58.0340 C.2     0  <0>0        0.1706
     16  O2         1.7090   29.0960   58.2000 O.2     0  <0>0       -0.2916
     17  C21        1.2980   31.3080   58.8850 C.3     0  <0>0        0.0693
     18  C22        0.9120   32.5640   58.0950 C.3     0  <0>0        0.0141
     19  C23       -0.5510   32.4360   57.6680 C.3     0  <0>0        0.0414
     20  H14       -2.4100   31.8370   55.9010 H       0  <0>0        0.1519
     21  C5        -0.9410   27.8440   57.0470 C.ar    0  <0>0       -0.0140
     22  C4        -0.3620   26.6430   57.4140 C.ar    0  <0>0       -0.0005
     23  C3        -1.0820   25.7260   58.1570 C.ar    0  <0>0        0.0366
     24  C2        -2.3850   26.0130   58.5350 C.ar    0  <0>0        0.1387
     25  C7        -2.9640   27.2170   58.1650 C.ar    0  <0>0        0.0366
     26  C6        -2.2390   28.1330   57.4280 C.ar    0  <0>0       -0.0005
     27  O1        -3.0940   25.1120   59.2660 O.3     0  <0>0       -0.4714
     28  C1        -2.9440   23.7340   58.9200 C.3     0  <0>0        0.2525
@<TRIPOS>BOND
     1     7     6   ar
     2     7     8   ar
     3     6     5   ar
     4     9     8   ar
     5     9    10   ar
     6     8     3   ar
     7     5     4   ar
     8    10    11   ar
     9     3     4   ar
    10     3     2   ar
    11    11     2   ar
    12    11    12    1
    13     2     1    1
    14    12    20    1
    15    12    13    1
    16     1    21    1
    17     1    14    1
    18    13    14    2
    19    13    19    1
    20    21    22   ar
    21    21    26   ar
    22    14    15    1
    23    22    23   ar
    24    26    25   ar
    25    19    18    1
    26    15    16    2
    27    15    17    1
    28    18    17    1
    29    23    24   ar
    30    25    24   ar
    31    24    27    1
    32    28    27    1
