@<TRIPOS>MOLECULE
ZINC13774847_replica-1.pdb
 22 22 0 0 0
SMALL
GASTEIGER

@<TRIPOS>ATOM
      1  C6         8.4550   36.9280   59.0590 C.3     0  <0>0        0.0932
      2  C7         8.8100   38.4060   58.8890 C.3     0  <0>0        0.0261
      3  N2         8.4690   36.2690   57.7520 N.am    0  <0>0       -0.3140
      4  C5         7.3200   35.8140   57.2140 C.2     0  <0>0        0.1316
      5  S1         5.8450   36.0010   58.0620 S.2     0  <0>0       -0.0189
      6  H12        9.3060   36.1590   57.2720 H       0  <0>0        0.1487
      7  N1         7.3340   35.2070   56.0100 N.am    0  <0>0       -0.3161
      8  H11        7.6090   35.7000   55.2220 H       0  <0>0        0.1484
      9  C4         6.9330   33.8020   55.8930 C.3     0  <0>0        0.0884
     10  C3         7.9790   32.9170   56.5750 C.3     0  <0>0        0.0212
     11  C2         7.3780   32.3030   57.8420 C.3     0  <0>0        0.0017
     12  C1         8.4930   31.6820   58.6850 C.3     0  <0>0        0.0001
     13  C8         9.4640   36.2700   59.9650 C.ar    0  <0>0       -0.0046
     14  C13        9.9290   35.0000   59.6740 C.ar    0  <0>0       -0.0030
     15  C12       10.8550   34.3970   60.5040 C.ar    0  <0>0       -0.0046
     16  C11       11.3160   35.0620   61.6240 C.ar    0  <0>0       -0.0228
     17  C10       10.8510   36.3300   61.9150 C.ar    0  <0>0       -0.0046
     18  C9         9.9290   36.9370   61.0820 C.ar    0  <0>0       -0.0030
     19  C14       12.3260   34.4030   62.5290 C.3     0  <0>0        0.0189
     20  C15       12.4920   35.2360   63.8000 C.3     0  <0>0        0.0044
     21  C16       11.8390   33.0000   62.8980 C.3     0  <0>0        0.0044
     22  C17       13.6700   34.3040   61.8040 C.3     0  <0>0        0.0044
@<TRIPOS>BOND
     1     8     7    1
     2     9     7    1
     3     9    10    1
     4     7     4    1
     5    10    11    1
     6     4     3    1
     7     4     5    2
     8     6     3    1
     9     3     1    1
    10    11    12    1
    11     2     1    1
    12     1    13    1
    13    14    13   ar
    14    14    15   ar
    15    13    18   ar
    16    15    16   ar
    17    18    17   ar
    18    16    17   ar
    19    16    19    1
    20    22    19    1
    21    19    21    1
    22    19    20    1
