@<TRIPOS>MOLECULE
ZINC49903194_replica-1.pdb
 24 25 0 0 0
SMALL
GASTEIGER

@<TRIPOS>ATOM
      1  C9        -0.3150   29.9140   54.2550 C.3     0  <0>0        0.0549
      2  C8        -1.2340   29.3360   53.1770 C.3     0  <0>0        0.1341
      3  C6        -0.9090   27.8800   52.9660 C.ar    0  <0>0        0.0000
      4  C5        -1.2670   27.2550   51.7870 C.ar    0  <0>0       -0.0236
      5  C4        -0.9680   25.9190   51.5940 C.ar    0  <0>0       -0.0048
      6  C20       -1.9830   28.0300   50.7110 C.3     0  <0>0        0.0308
      7  C3        -0.3100   25.2090   52.5810 C.ar    0  <0>0       -0.0046
      8  C2         0.0490   25.8340   53.7610 C.ar    0  <0>0       -0.0221
      9  C1         0.7660   25.0590   54.8360 C.3     0  <0>0        0.0310
     10  C7        -0.2550   27.1690   53.9560 C.ar    0  <0>0       -0.0065
     11  O1        -2.5950   29.4660   53.5930 O.3     0  <0>0       -0.3800
     12  H24       -3.1460   29.9740   52.9810 H       0  <0>0        0.2108
     13  C10       -0.8050   31.3080   54.6500 C.3     0  <0>0        0.0899
     14  N1        -1.6300   31.2120   55.8570 N.pl3   0  <0>0       -0.3331
     15  H12       -2.5570   31.4980   55.8350 H       0  <0>0        0.1468
     16  C11       -1.0830   30.7090   57.0400 C.ar    0  <0>0        0.0365
     17  C16       -0.0930   31.4180   57.7050 C.ar    0  <0>0       -0.0094
     18  C15        0.4430   30.9200   58.8770 C.ar    0  <0>0       -0.0073
     19  C17        0.3940   32.7330   57.1540 C.3     0  <0>0        0.0323
     20  C14        0.0010   29.7100   59.3810 C.ar    0  <0>0       -0.0224
     21  C13       -0.9810   28.9990   58.7170 C.ar    0  <0>0       -0.0073
     22  C18        0.5910   29.1670   60.6570 C.3     0  <0>0        0.0310
     23  C12       -1.5240   29.4930   57.5480 C.ar    0  <0>0       -0.0094
     24  C19       -2.5960   28.7170   56.8260 C.3     0  <0>0        0.0323
@<TRIPOS>BOND
     1     6     4    1
     2     5     4   ar
     3     5     7   ar
     4     4     3   ar
     5     7     8   ar
     6     3     2    1
     7     3    10   ar
     8    12    11    1
     9     2    11    1
    10     2     1    1
    11     8    10   ar
    12     8     9    1
    13     1    13    1
    14    13    14    1
    15    15    14    1
    16    14    16    1
    17    24    23    1
    18    16    23   ar
    19    16    17   ar
    20    19    17    1
    21    23    21   ar
    22    17    18   ar
    23    21    20   ar
    24    18    20   ar
    25    20    22    1
