@<TRIPOS>MOLECULE
ZINC40271540_replica-1.pdb
 22 24 0 0 0
SMALL
GASTEIGER

@<TRIPOS>ATOM
      1  C11        6.8710   36.6130   57.8650 C.ar    0  <0>0       -0.0036
      2  C12        6.3360   36.5580   59.1400 C.ar    0  <0>0       -0.0015
      3  C13        5.0070   36.2440   59.3250 C.ar    0  <0>0        0.0141
      4  C14        4.1900   35.9810   58.2270 C.ar    0  <0>0        0.0467
      5  C15        4.7380   36.0410   56.9520 C.ar    0  <0>0        0.0002
      6  C16        6.0650   36.3590   56.7690 C.ar    0  <0>0       -0.0053
      7  C17        3.6180   35.7120   55.9920 C.3     0  <0>0        0.1129
      8  C18        2.4220   35.4740   56.8890 C.2     0  <0>0        0.2306
      9  O1         1.3010   35.1800   56.5320 O.2     0  <0>0       -0.2744
     10  N1         2.8370   35.6480   58.1560 N.am    0  <0>0       -0.2839
     11  H18        2.2620   35.5520   58.9310 H       0  <0>0        0.1549
     12  C10        8.3250   36.9570   57.6700 C.3     0  <0>0        0.1242
     13 Cl          8.5040   38.7430   57.5030 Cl      0  <0>0       -0.1053
     14  C7         9.1180   36.4810   58.8610 C.ar    0  <0>0       -0.0034
     15  C6         9.2960   37.3140   59.9500 C.ar    0  <0>0       -0.0031
     16  C5        10.0220   36.8770   61.0410 C.ar    0  <0>0       -0.0046
     17  C4        10.5700   35.6080   61.0450 C.ar    0  <0>0       -0.0225
     18  C9        10.3970   34.7770   59.9530 C.ar    0  <0>0       -0.0046
     19  C8         9.6660   35.2130   58.8630 C.ar    0  <0>0       -0.0031
     20  C2        11.3620   35.1320   62.2350 C.3     0  <0>0        0.0224
     21  C1        12.5540   34.3000   61.7560 C.3     0  <0>0        0.0047
     22  C3        11.8680   36.3390   63.0260 C.3     0  <0>0        0.0047
@<TRIPOS>BOND
     1     7     8    1
     2     7     5    1
     3     9     8    2
     4     6     5   ar
     5     6     1   ar
     6     8    10   am
     7     5     4   ar
     8    13    12    1
     9    12     1    1
    10    12    14    1
    11     1     2   ar
    12    10     4    1
    13    10    11    1
    14     4     3   ar
    15    14    19   ar
    16    14    15   ar
    17    19    18   ar
    18     2     3   ar
    19    15    16   ar
    20    18    17   ar
    21    16    17   ar
    22    17    20    1
    23    21    20    1
    24    20    22    1
