@<TRIPOS>MOLECULE
ZINC08750839_replica-1.pdb
 27 29 0 0 0
SMALL
GASTEIGER

@<TRIPOS>ATOM
      1  C18        6.2720   32.1260   60.4570 C.3     0  <0>0        0.1462
      2  C19        6.3700   31.2930   61.7370 C.3     0  <0>0        0.0286
      3  C20        5.7210   31.2950   59.3730 C.1     0  <0>0        0.0836
      4  N3         5.2970   30.6550   58.5360 N.1     0  <0>0       -0.1950
      5  S1         5.1850   33.5440   60.7420 S.3     0  <0>0       -0.0518
      6  C17        6.1870   34.8350   60.0820 C.2     0  <0>0        0.2211
      7  N1         5.7840   35.7080   59.1000 N.am    0  <0>0       -0.2019
      8  C8         6.8000   36.5620   58.8480 C.2     0  <0>0        0.2846
      9  O1         6.8120   37.4750   58.0440 O.2     0  <0>0       -0.2667
     10  C9         7.8920   36.1530   59.7520 C.2     0  <0>0        0.1694
     11  C10        9.1280   36.7230   59.8600 C.3     0  <0>0        0.0902
     12  N2         7.4130   35.0870   60.4600 N.2     0  <0>0       -0.3795
     13  C5         4.5310   35.7150   58.4730 C.ar    0  <0>0        0.0612
     14  C4         3.4080   36.1470   59.1650 C.ar    0  <0>0        0.0150
     15  C3         2.1750   36.1520   58.5450 C.ar    0  <0>0       -0.0030
     16  C2         2.0570   35.7280   57.2330 C.ar    0  <0>0       -0.0218
     17  C1         0.7090   35.7350   56.5590 C.3     0  <0>0        0.0310
     18  C7         3.1740   35.2960   56.5410 C.ar    0  <0>0       -0.0030
     19  C6         4.4110   35.2940   57.1550 C.ar    0  <0>0        0.0150
     20  C11       10.1510   36.1030   60.7090 C.ar    0  <0>0       -0.0141
     21  C16       10.5510   36.7250   61.8990 C.ar    0  <0>0        0.0084
     22  C15       11.5120   36.1330   62.6910 C.ar    0  <0>0        0.0679
     23  C14       12.0830   34.9280   62.3130 C.ar    0  <0>0        0.0682
     24 Cl         12.0110   36.9020   64.1660 Cl      0  <0>0       -0.0814
     25  C13       11.6920   34.3080   61.1370 C.ar    0  <0>0        0.0119
     26 Cl         13.2930   34.1920   63.3170 Cl      0  <0>0       -0.0814
     27  C12       10.7280   34.8810   60.3380 C.ar    0  <0>0       -0.0029
@<TRIPOS>BOND
     1    18    19   ar
     2    18    16   ar
     3    17    16    1
     4    19    13   ar
     5    16    15   ar
     6     9     8    2
     7    13     7    1
     8    13    14   ar
     9     4     3    3
    10    15    14   ar
    11     8     7   am
    12     8    10    1
    13     7     6    1
    14     3     1    1
    15    10    11    1
    16    10    12    2
    17    11    20    1
    18     6    12    2
    19     6     5    1
    20    27    20   ar
    21    27    25   ar
    22     1     5    1
    23     1     2    1
    24    20    21   ar
    25    25    23   ar
    26    21    22   ar
    27    23    22   ar
    28    23    26    1
    29    22    24    1
