@<TRIPOS>MOLECULE
ZINC17193968_replica-1.pdb
 26 28 0 0 0
SMALL
GASTEIGER

@<TRIPOS>ATOM
      1  N1         8.3060   35.7570   58.4750 N.am    0  <0>0       -0.1590
      2  C8         6.9710   35.6060   58.5920 C.2     0  <0>0        0.2548
      3  O1         6.3510   35.3310   59.6060 O.2     0  <0>0       -0.2723
      4  C9         6.4160   35.8390   57.2540 C.3     0  <0>0        0.1355
      5  C17        7.5810   36.1300   56.4060 C.2     0  <0>0        0.0651
      6  N3         8.6380   36.0750   57.1580 N.2     0  <0>0       -0.1797
      7  C18        7.5540   36.4420   54.9310 C.3     0  <0>0        0.0495
      8  C10        5.0860   35.7950   56.8730 C.3     0  <0>0        0.1021
      9  N2         4.3650   34.6700   57.0640 N.pl3   0  <0>0       -0.3302
     10  H8         4.5860   33.8650   56.5700 H       0  <0>0        0.1469
     11  C11        3.3020   34.6650   57.9730 C.ar    0  <0>0        0.0726
     12  C16        3.3110   33.7850   59.0500 C.ar    0  <0>0        0.1553
     13  C15        2.2600   33.7870   59.9510 C.ar    0  <0>0        0.0605
     14  F1         4.3460   32.9350   59.2210 F       0  <0>0       -0.2028
     15  C14        1.1960   34.6560   59.7720 C.ar    0  <0>0        0.1425
     16  C13        1.1840   35.5280   58.6970 C.ar    0  <0>0        0.0310
     17  F2         0.1700   34.6530   60.6500 F       0  <0>0       -0.2041
     18  C12        2.2330   35.5350   57.7980 C.ar    0  <0>0        0.0189
     19  C7         9.2250   35.6210   59.5230 C.ar    0  <0>0        0.0728
     20  C2         9.5820   36.7270   60.2830 C.ar    0  <0>0       -0.0058
     21  C1         8.9810   38.0750   59.9810 C.3     0  <0>0        0.0324
     22  C3        10.4840   36.5890   61.3200 C.ar    0  <0>0        0.0037
     23  C4        11.0360   35.3510   61.5980 C.ar    0  <0>0        0.0343
     24  C5        10.6870   34.2480   60.8380 C.ar    0  <0>0        0.0080
     25 Br         12.2710   35.1660   63.0170 Br      0  <0>0       -0.0490
     26  C6         9.7860   34.3810   59.8000 C.ar    0  <0>0        0.0170
@<TRIPOS>BOND
     1     7     5    1
     2     5     6    2
     3     5     4    1
     4    10     9    1
     5     8     9    1
     6     8     4    1
     7     9    11    1
     8     6     1    1
     9     4     2    1
    10    18    11   ar
    11    18    16   ar
    12    11    12   ar
    13     1     2   am
    14     1    19    1
    15     2     3    2
    16    16    15   ar
    17    12    14    1
    18    12    13   ar
    19    19    26   ar
    20    19    20   ar
    21    15    13   ar
    22    15    17    1
    23    26    24   ar
    24    21    20    1
    25    20    22   ar
    26    24    23   ar
    27    22    23   ar
    28    23    25    1
