@<TRIPOS>MOLECULE
ZINC61372979_replica-1.pdb
 26 28 0 0 0
SMALL
GASTEIGER

@<TRIPOS>ATOM
      1  C8        -1.8550   30.6700   55.1410 C.3     0  <0>0        0.0717
      2  C7        -0.4590   31.2970   55.1240 C.3     0  <0>0        0.0989
      3  N1        -0.4390   32.4680   56.0050 N.am    0  <0>0       -0.3004
      4  C6         0.7210   32.8830   56.5470 C.2     0  <0>0        0.2416
      5  O1         1.7530   32.2860   56.3070 O.2     0  <0>0       -0.2705
      6  H11       -1.2620   32.9450   56.1960 H       0  <0>0        0.1498
      7  C4         0.7410   34.0590   57.4310 C.2     0  <0>0        0.0272
      8  C3         0.6500   33.9030   58.7490 C.2     0  <0>0       -0.0259
      9  C5         0.8650   35.4410   56.8440 C.3     0  <0>0        0.0354
     10  C2         0.6490   32.5190   59.3440 C.3     0  <0>0        0.0259
     11  C1         1.0850   32.5940   60.8090 C.3     0  <0>0        0.0050
     12  C9        -1.9150   29.6070   56.2080 C.ar    0  <0>0        0.0127
     13  S1        -0.6560   29.1100   57.3720 S.2     0  <0>0       -0.0904
     14  C12       -1.5800   27.8360   58.2140 C.ar    0  <0>0        0.0351
     15  C11       -2.7650   27.8690   57.5570 C.ar    0  <0>0        0.0072
     16  C10       -2.9370   28.7770   56.5290 C.ar    0  <0>0        0.0031
     17  C13       -2.1420   30.0500   53.7980 C.ar    0  <0>0        0.0021
     18  C16       -1.5260   28.8400   53.2460 C.ar    0  <0>0        0.0134
     19  C15       -2.1060   28.6520   51.9790 C.ar    0  <0>0        0.0563
     20  C17       -0.5670   27.9400   53.7150 C.ar    0  <0>0        0.0012
     21  N2        -2.9990   29.6820   51.7830 N.ar    0  <0>0       -0.3522
     22  C20       -1.7160   27.5630   51.2060 C.ar    0  <0>0        0.0170
     23  C14       -3.0070   30.5050   52.8770 C.ar    0  <0>0        0.0684
     24  H1        -3.5410   29.8060   50.9890 H       0  <0>0        0.1660
     25  C19       -0.7620   26.6920   51.6840 C.ar    0  <0>0        0.0015
     26  C18       -0.1950   26.8790   52.9380 C.ar    0  <0>0        0.0001
@<TRIPOS>BOND
     1    24    21    1
     2    22    25   ar
     3    22    19   ar
     4    25    26   ar
     5    21    19   ar
     6    21    23   ar
     7    19    18   ar
     8    23    17   ar
     9    26    20   ar
    10    18    20   ar
    11    18    17   ar
    12    17     1    1
    13     2     1    1
    14     2     3    1
    15     1    12    1
    16     3     6    1
    17     3     4   am
    18    12    16   ar
    19    12    13   ar
    20     5     4    2
    21    16    15   ar
    22     4     7    1
    23     9     7    1
    24    13    14   ar
    25     7     8    2
    26    15    14   ar
    27     8    10    1
    28    10    11    1
