@<TRIPOS>MOLECULE
ZINC37354878_replica-1.pdb
 20 20 0 0 0
SMALL
GASTEIGER

@<TRIPOS>ATOM
      1  C5        11.1970   34.9580   61.5950 C.ar    0  <0>0       -0.0225
      2  C6        10.8580   34.4050   60.3730 C.ar    0  <0>0       -0.0042
      3  C7        10.1060   35.1270   59.4710 C.ar    0  <0>0        0.0025
      4  C8         9.6870   36.4210   59.7930 C.ar    0  <0>0        0.0347
      5  C9        10.0340   36.9730   61.0300 C.ar    0  <0>0        0.0025
      6  C10       10.7820   36.2360   61.9240 C.ar    0  <0>0       -0.0042
      7  C11        8.8850   37.2000   58.8350 C.2     0  <0>0        0.1730
      8  O1         8.5480   38.3320   59.1060 O.2     0  <0>0       -0.2913
      9  C12        8.4830   36.5890   57.5170 C.3     0  <0>0        0.0691
     10  C13        7.3520   35.5840   57.7450 C.3     0  <0>0        0.0077
     11  C14        7.2670   34.6310   56.5520 C.3     0  <0>0        0.0005
     12  C15        6.0270   36.3350   57.8950 C.3     0  <0>0        0.0004
     13  C16        5.4200   36.0300   59.2660 C.3     0  <0>0        0.0000
     14  C17        6.2220   34.9150   59.9410 C.3     0  <0>0        0.0000
     15  C18        5.4660   37.2880   60.1350 C.3     0  <0>0        0.0000
     16  C19        3.9680   35.5820   59.0950 C.3     0  <0>0        0.0000
     17  C3        12.0200   34.1610   62.5760 C.3     0  <0>0        0.0223
     18  C4        11.4910   32.7270   62.6370 C.3     0  <0>0        0.0047
     19  C2        13.4810   34.1480   62.1230 C.3     0  <0>0        0.0044
     20  C1        14.2850   33.2080   63.0240 C.3     0  <0>0        0.0003
@<TRIPOS>BOND
     1    11    10    1
     2     9    10    1
     3     9     7    1
     4    10    12    1
     5    12    13    1
     6     7     8    2
     7     7     4    1
     8    16    13    1
     9    13    14    1
    10    13    15    1
    11     3     4   ar
    12     3     2   ar
    13     4     5   ar
    14     2     1   ar
    15     5     6   ar
    16     1     6   ar
    17     1    17    1
    18    19    17    1
    19    19    20    1
    20    17    18    1
