@<TRIPOS>MOLECULE
ZINC67450454_replica-1.pdb
 24 26 0 0 0
SMALL
GASTEIGER

@<TRIPOS>ATOM
      1  N1        12.6060   34.4840   62.0470 N.pl3   0  <0>0       -0.3237
      2  H5        13.1200   34.5930   61.2320 H       0  <0>0        0.1473
      3  C5        12.5180   33.2260   62.6550 C.ar    0  <0>0        0.0510
      4  C4        13.6700   32.5880   63.1150 C.ar    0  <0>0        0.0458
      5  C3        13.5750   31.3410   63.7160 C.ar    0  <0>0        0.0076
      6  C2        12.3410   30.7350   63.8590 C.ar    0  <0>0        0.0006
      7  C1        11.1980   31.3670   63.4030 C.ar    0  <0>0        0.0013
      8  C6        11.2840   32.6100   62.8030 C.ar    0  <0>0        0.0148
      9  S1        15.2410   33.3630   62.9330 S.3     0  <0>0       -0.0132
     10  C14       15.6070   34.0100   64.5880 C.3     0  <0>0        0.4477
     11  F1        14.5710   34.8560   64.9980 F       0  <0>0       -0.1600
     12  F2        15.7250   32.9460   65.4890 F       0  <0>0       -0.1600
     13  F3        16.8070   34.7270   64.5530 F       0  <0>0       -0.1600
     14  C7        11.9230   35.6350   62.6420 C.3     0  <0>0        0.1914
     15  C8        10.8010   36.0760   61.7390 C.2     0  <0>0        0.3134
     16  O1         9.7920   36.8870   62.0820 O.2     0  <0>0       -0.3138
     17  N3         8.9800   37.0300   60.9260 N.2     0  <0>0       -0.0071
     18  C9         9.5380   36.3030   59.9890 C.1     0  <0>0        0.1301
     19  N2        10.6450   35.7270   60.4930 N.2     0  <0>0       -0.3107
     20  C10        9.0350   36.1420   58.6040 C.ar    0  <0>0        0.1177
     21  C13        8.5920   37.1220   57.7730 C.ar    0  <0>0        0.1908
     22  O2         8.2290   36.5610   56.6120 O.2     0  <0>0       -0.4466
     23  C12        8.4080   35.2320   56.6470 C.ar    0  <0>0        0.1805
     24  C11        8.9050   34.8900   57.8480 C.ar    0  <0>0        0.0550
@<TRIPOS>BOND
     1    22    23   ar
     2    22    21   ar
     3    23    24   ar
     4    21    20   ar
     5    24    20   ar
     6    20    18    1
     7    18    19    2
     8    18    17    2
     9    19    15    2
    10    17    16    1
    11     2     1    1
    12    15    16    1
    13    15    14    1
    14     1    14    1
    15     1     3    1
    16     3     8   ar
    17     3     4   ar
    18     8     7   ar
    19     9     4    1
    20     9    10    1
    21     4     5   ar
    22     7     6   ar
    23     5     6   ar
    24    13    10    1
    25    10    11    1
    26    10    12    1
