@<TRIPOS>MOLECULE
ZINC35084449_replica-1.pdb
 20 20 0 0 0
SMALL
GASTEIGER

@<TRIPOS>ATOM
      1  C6        10.4480   35.2750   60.5130 C.ar    0  <0>0        0.0447
      2  C7        10.2590   36.4790   61.1800 C.ar    0  <0>0        0.0160
      3  C8         9.4790   37.4670   60.6120 C.ar    0  <0>0        0.0253
      4  C9         8.8870   37.2590   59.3800 C.ar    0  <0>0        0.1468
      5  C10        9.0720   36.0620   58.7130 C.ar    0  <0>0        0.0950
      6  C11        9.8550   35.0720   59.2730 C.ar    0  <0>0        0.0198
      7  N1        11.2360   34.2750   61.0850 N.pl3   0  <0>0       -0.3326
      8  H12       11.0650   33.3430   60.8750 H       0  <0>0        0.1468
      9  C5        12.3220   34.6310   62.0010 C.3     0  <0>0        0.0870
     10  C4        12.4070   33.5920   63.1210 C.3     0  <0>0        0.0212
     11  C2        13.6810   32.7620   62.9530 C.3     0  <0>0        0.0017
     12  C1        14.8710   33.5330   63.5270 C.3     0  <0>0        0.0001
     13  C3        13.5260   31.4340   63.6970 C.3     0  <0>0        0.0001
     14  C12        8.4230   35.8400   57.3710 C.3     0  <0>0        0.4202
     15  F1         7.0340   35.9220   57.5070 F       0  <0>0       -0.1658
     16  F2         8.8640   36.8160   56.4720 F       0  <0>0       -0.1658
     17  F3         8.7720   34.5730   56.8900 F       0  <0>0       -0.1658
     18  N2         8.0510   38.3200   58.7750 N.pl3   0  <0>0        0.0576
     19  O1         6.9030   38.4620   59.1260 O.2     0  <0>0       -0.1261
     20  O2         8.5180   39.0470   57.9270 O.2     0  <0>0       -0.1261
@<TRIPOS>BOND
     1    16    14    1
     2    17    14    1
     3    14    15    1
     4    14     5    1
     5    20    18    2
     6     5     6   ar
     7     5     4   ar
     8    18    19    2
     9    18     4    1
    10     6     1   ar
    11     4     3   ar
    12     1     7    1
    13     1     2   ar
    14     3     2   ar
    15     8     7    1
    16     7     9    1
    17     9    10    1
    18    11    10    1
    19    11    12    1
    20    11    13    1
