@<TRIPOS>MOLECULE
ZINC63755471_replica-1.pdb
 32 35 0 0 0
SMALL
GASTEIGER

@<TRIPOS>ATOM
      1  C6        -1.2320   28.5860   55.4500 C.3     0  <0>0        0.0930
      2  C7        -1.1800   27.9860   56.7040 C.ar    0  <0>0        0.0026
      3  C8        -2.0360   28.0440   57.8250 C.ar    0  <0>0       -0.0022
      4  C9        -1.7310   27.3380   58.9430 C.ar    0  <0>0       -0.0002
      5  C10       -0.5830   26.5480   59.0180 C.ar    0  <0>0        0.0012
      6  C11        0.2840   26.4470   57.9800 C.ar    0  <0>0        0.0140
      7  C12        0.0320   27.1550   56.7780 C.ar    0  <0>0        0.0417
      8  N2         0.7080   27.2210   55.6460 N.pl3   0  <0>0       -0.3299
      9  C13       -0.0030   28.1020   54.7130 C.3     0  <0>0        0.1061
     10  H25        1.5390   26.7580   55.4590 H       0  <0>0        0.1471
     11  S1        -2.4040   29.6150   54.8790 S.3     0  <0>0       -0.1328
     12  C5        -2.2580   31.0780   55.9410 C.3     0  <0>0        0.0791
     13  C4        -0.7970   31.5300   55.9870 C.3     0  <0>0        0.1011
     14  N1        -0.6550   32.6210   56.9550 N.am    0  <0>0       -0.3005
     15  C3         0.5260   33.2580   57.0840 C.2     0  <0>0        0.2627
     16  O1         1.4710   32.9290   56.3980 O.2     0  <0>0       -0.2712
     17  H6        -1.4100   32.8840   57.5040 H       0  <0>0        0.1496
     18  C2         0.6730   34.3790   58.0800 C.3     0  <0>0        0.2411
     19  C1         1.2450   35.6120   57.3780 C.3     0  <0>0        0.0574
     20  O2         1.5570   33.9740   59.1280 O.3     0  <0>0       -0.4700
     21  C20        0.9870   33.5460   60.2840 C.ar    0  <0>0        0.1391
     22  C25        0.1440   34.3870   60.9960 C.ar    0  <0>0        0.0369
     23  C24       -0.4380   33.9470   62.1690 C.ar    0  <0>0        0.0031
     24  C23       -0.1730   32.6740   62.6400 C.ar    0  <0>0        0.0002
     25  C22        0.6700   31.8360   61.9340 C.ar    0  <0>0        0.0031
     26  C21        1.2510   32.2690   60.7580 C.ar    0  <0>0        0.0369
     27  C14       -0.4050   27.3390   53.4780 C.ar    0  <0>0       -0.0034
     28  C19       -0.0860   26.0000   53.3570 C.ar    0  <0>0       -0.0026
     29  C18       -0.4590   25.3000   52.2260 C.ar    0  <0>0       -0.0003
     30  C17       -1.1440   25.9410   51.2100 C.ar    0  <0>0       -0.0000
     31  C16       -1.4570   27.2820   51.3280 C.ar    0  <0>0       -0.0003
     32  C15       -1.0890   27.9810   52.4620 C.ar    0  <0>0       -0.0026
@<TRIPOS>BOND
     1    30    31   ar
     2    30    29   ar
     3    31    32   ar
     4    29    28   ar
     5    32    27   ar
     6    28    27   ar
     7    27     9    1
     8     9     1    1
     9     9     8    1
    10    11     1    1
    11    11    12    1
    12     1     2    1
    13    10     8    1
    14     8     7    1
    15    12    13    1
    16    13    14    1
    17    16    15    2
    18     2     7   ar
    19     2     3   ar
    20     7     6   ar
    21    14    15   am
    22    14    17    1
    23    15    18    1
    24    19    18    1
    25     3     4   ar
    26     6     5   ar
    27    18    20    1
    28     4     5   ar
    29    20    21    1
    30    21    26   ar
    31    21    22   ar
    32    26    25   ar
    33    22    23   ar
    34    25    24   ar
    35    23    24   ar
