@<TRIPOS>MOLECULE
ZINC66581108_replica-1.pdb
 27 28 0 0 0
SMALL
GASTEIGER

@<TRIPOS>ATOM
      1  C5         0.9940   31.7330   58.2500 C.ar    0  <0>0        0.0908
      2  C6         0.7330   30.8760   59.3130 C.ar    0  <0>0        0.0189
      3  C7        -0.1710   29.8420   59.1680 C.ar    0  <0>0        0.0129
      4  C8        -0.8220   29.6510   57.9650 C.ar    0  <0>0        0.0621
      5  C9        -0.5680   30.5070   56.8910 C.ar    0  <0>0        0.0653
      6  C10        0.3420   31.5550   57.0400 C.ar    0  <0>0        0.0234
      7 Cl         -1.9570   28.3490   57.7870 Cl      0  <0>0       -0.0821
      8  C11       -1.2630   30.3070   55.6020 C.2     0  <0>0        0.2470
      9  O3        -2.3450   30.8250   55.4080 O.2     0  <0>0       -0.2701
     10  N2        -0.6970   29.5500   54.6410 N.am    0  <0>0       -0.2968
     11  H13        0.1670   29.1360   54.7950 H       0  <0>0        0.1501
     12  C12       -1.3860   29.3520   53.3630 C.3     0  <0>0        0.1188
     13  C13       -1.1030   27.9630   52.8500 C.ar    0  <0>0        0.0249
     14  C18       -1.6410   27.5480   51.6440 C.ar    0  <0>0        0.1377
     15  C17       -1.3760   26.2750   51.1710 C.ar    0  <0>0        0.0294
     16  F1        -2.4190   28.3890   50.9260 F       0  <0>0       -0.2044
     17  C16       -0.5840   25.4150   51.9080 C.ar    0  <0>0        0.0023
     18  C15       -0.0530   25.8290   53.1150 C.ar    0  <0>0       -0.0001
     19  C14       -0.3120   27.1020   53.5860 C.ar    0  <0>0       -0.0004
     20  N1         1.9100   32.7780   58.4030 N.pl3   0  <0>0       -0.1007
     21  S1         3.4690   32.5960   57.8760 S.O2    0  <0>0        0.0731
     22  O1         3.4380   32.9880   56.5110 O.2     0  <0>0       -0.1529
     23  O2         3.8230   31.2700   58.2410 O.2     0  <0>0       -0.1529
     24  C4         4.4310   33.7880   58.8470 C.3     0  <0>0        0.1743
     25  C2         4.4630   35.1330   58.1170 C.3     0  <0>0        0.0256
     26  C1         3.2300   35.9520   58.5040 C.3     0  <0>0        0.0019
     27  C3         5.7290   35.8970   58.5130 C.3     0  <0>0        0.0019
@<TRIPOS>BOND
     1    16    14    1
     2    15    14   ar
     3    15    17   ar
     4    14    13   ar
     5    17    18   ar
     6    13    12    1
     7    13    19   ar
     8    18    19   ar
     9    12    10    1
    10    10    11    1
    11    10     8   am
    12     9     8    2
    13     8     5    1
    14    22    21    2
    15     5     6   ar
    16     5     4   ar
    17     6     1   ar
    18     7     4    1
    19    21    23    2
    20    21    20    1
    21    21    24    1
    22     4     3   ar
    23    25    26    1
    24    25    27    1
    25    25    24    1
    26     1    20    1
    27     1     2   ar
    28     3     2   ar
