@<TRIPOS>MOLECULE
ZINC02303647_replica-1.pdb
 23 24 0 0 0
SMALL
GASTEIGER

@<TRIPOS>ATOM
      1  C10        7.3850   35.7690   56.9170 C.2     0  <0>0        0.3442
      2  N1         7.9360   35.9780   55.7540 N.2     0  <0>0        0.0879
      3  N2         7.1100   35.6870   54.8140 N.2     0  <0>0        0.0474
      4  C11        5.9760   35.2720   55.3270 C.1     0  <0>0        0.1838
      5  N3         6.1160   35.3070   56.6880 N.am    0  <0>0       -0.0981
      6  S1         4.5450   34.7610   54.4330 S.2     0  <0>0        0.0565
      7  C4         8.0250   35.9910   58.2630 C.3     0  <0>0        0.1121
      8  C3         8.3140   37.4810   58.4520 C.3     0  <0>0        0.0414
      9  C2         7.0850   38.1650   59.0560 C.3     0  <0>0        0.1112
     10  C1         6.6010   37.3680   60.2690 C.3     0  <0>0        0.0317
     11  O1         7.4310   39.4910   59.4640 O.3     0  <0>0       -0.3844
     12  H24        6.8350   40.1740   59.1270 H       0  <0>0        0.2103
     13  C5         9.3350   35.2040   58.3390 C.3     0  <0>0        0.0123
     14  C6         9.5050   34.6310   59.7470 C.3     0  <0>0        0.0006
     15  C7        10.6770   35.3250   60.4420 C.3     0  <0>0        0.0000
     16  C8        10.1590   36.5180   61.2470 C.3     0  <0>0        0.0000
     17  C9        11.3690   34.3370   61.3850 C.3     0  <0>0        0.0000
     18  C12        5.1590   34.9460   57.6470 C.ar    0  <0>0        0.1529
     19  C17        5.2270   33.7050   58.2640 C.ar    0  <0>0        0.0414
     20  C16        4.2880   33.3540   59.2150 C.ar    0  <0>0        0.0035
     21  C15        3.2730   34.2350   59.5420 C.ar    0  <0>0        0.0002
     22  C14        3.1990   35.4700   58.9240 C.ar    0  <0>0        0.0035
     23  C13        4.1390   35.8280   57.9790 C.ar    0  <0>0        0.0414
@<TRIPOS>BOND
     1     6     4    2
     2     3     4    2
     3     3     2    1
     4     4     5    1
     5     2     1    2
     6     5     1    1
     7     5    18    1
     8     1     7    1
     9    18    23   ar
    10    18    19   ar
    11    23    22   ar
    12     7    13    1
    13     7     8    1
    14    19    20   ar
    15    13    14    1
    16     8     9    1
    17    22    21   ar
    18     9    11    1
    19     9    10    1
    20    12    11    1
    21    20    21   ar
    22    14    15    1
    23    15    16    1
    24    15    17    1
