@<TRIPOS>MOLECULE
ZINC05900351_replica-1.pdb
 28 32 0 0 0
SMALL
GASTEIGER

@<TRIPOS>ATOM
      1  C3         9.1330   34.6240   59.3000 C.3     0  <0>0        0.1713
      2  C4         8.6930   33.1790   59.0730 C.3     0  <0>0        0.0438
      3  C5         7.2010   33.1040   58.7680 C.3     0  <0>0        0.0060
      4  C6         6.8580   33.9130   57.5090 C.3     0  <0>0        0.0254
      5  C7         5.3560   33.8920   57.2960 C.3     0  <0>0        0.0023
      6  C8         4.8990   34.3540   55.9260 C.3     0  <0>0        0.0002
      7  C9         3.4000   34.0080   55.7510 C.3     0  <0>0        0.0026
      8  C10        2.6320   34.7600   56.8080 C.3     0  <0>0        0.0262
      9  C11        3.1250   34.3710   58.2110 C.3     0  <0>0        0.0027
     10  C12        4.6020   34.5730   58.4390 C.3     0  <0>0        0.0027
     11  C13        4.9880   36.0160   58.6730 C.3     0  <0>0        0.0320
     12  C14        6.4260   36.3600   58.3240 C.3     0  <0>0        0.1398
     13  C15        7.3630   35.3390   57.6980 C.3     0  <0>0        0.1208
     14  C16        8.8520   35.4570   58.0470 C.3     0  <0>0        0.0732
     15  O3         6.7770   36.3880   56.9350 O.3     0  <0>0       -0.3561
     16  C17        2.1430   35.1400   59.1060 C.3     0  <0>0        0.0028
     17  C18        0.7860   34.9070   58.3810 C.3     0  <0>0        0.0311
     18  C19        1.1270   34.4690   56.9310 C.3     0  <0>0        0.1065
     19  C22        2.7310   36.2610   56.5130 C.3     0  <0>0        0.0027
     20  C23        7.5660   33.2750   56.3110 C.3     0  <0>0        0.0024
     21  O2         8.4130   35.1850   60.4300 O.3     0  <0>0       -0.4522
     22  C2         9.0420   36.1290   61.1470 C.2     0  <0>0        0.3174
     23  C1        10.5370   36.0690   61.3240 C.3     0  <0>0        0.1212
     24  O1         8.4090   37.0270   61.6500 O.2     0  <0>0       -0.2501
     25  C20        0.8230   33.0150   56.7270 C.2     0  <0>0       -0.0001
     26  C21       -0.0020   32.3990   57.5370 C.2     0  <0>0       -0.0025
     27  O4         0.4070   35.2720   55.9940 O.3     0  <0>0       -0.3827
     28  H28        0.9000   35.4710   55.1870 H       0  <0>0        0.2107
@<TRIPOS>BOND
     1    28    27    1
     2     7     6    1
     3     7     8    1
     4     6     5    1
     5    27    18    1
     6    20     4    1
     7    19     8    1
     8    25    18    1
     9    25    26    2
    10     8    18    1
    11     8     9    1
    12    18    17    1
    13    15    13    1
    14    15    12    1
    15     5     4    1
    16     5    10    1
    17     4    13    1
    18     4     3    1
    19    13    14    1
    20    13    12    1
    21    14     1    1
    22     9    10    1
    23     9    16    1
    24    12    11    1
    25    17    16    1
    26    10    11    1
    27     3     2    1
    28     2     1    1
    29     1    21    1
    30    21    22    1
    31    22    23    1
    32    22    24    2
