@<TRIPOS>MOLECULE
ZINC32183640_replica-1.pdb
 24 25 0 0 0
SMALL
GASTEIGER

@<TRIPOS>ATOM
      1  C10        0.4110   30.7040   55.6820 C.3     0  <0>0        0.1735
      2  C9        -0.3320   30.2190   54.4350 C.3     0  <0>0        0.1206
      3  N1        -0.3740   28.7540   54.4320 N.pl3   0  <0>0       -0.3309
      4  H11       -0.0650   28.1930   55.3260 H       0  <0>0        0.1469
      5  C6        -0.8060   28.0710   53.2930 C.ar    0  <0>0        0.0403
      6  C5        -1.6010   28.7160   52.3540 C.ar    0  <0>0        0.0140
      7  C4        -2.0260   28.0380   51.2280 C.ar    0  <0>0        0.0009
      8  C3        -1.6610   26.7180   51.0360 C.ar    0  <0>0       -0.0045
      9  C2        -0.8690   26.0720   51.9680 C.ar    0  <0>0       -0.0246
     10  C1        -0.4730   24.6350   51.7530 C.3     0  <0>0        0.0307
     11  C7        -0.4360   26.7470   53.0930 C.ar    0  <0>0       -0.0127
     12  C8         0.4330   26.0460   54.1050 C.3     0  <0>0        0.0320
     13  C11       -0.6030   31.1260   56.7470 C.3     0  <0>0        0.2361
     14  O1        -1.6830   30.1910   56.7750 O.3     0  <0>0       -0.4728
     15  C12       -1.6630   29.2540   57.7590 C.ar    0  <0>0        0.1380
     16  C17       -2.3580   28.0640   57.5990 C.ar    0  <0>0        0.0326
     17  C16       -2.3360   27.1130   58.6020 C.ar    0  <0>0       -0.0192
     18  C15       -1.6230   27.3460   59.7610 C.ar    0  <0>0       -0.0083
     19  C18       -3.0930   25.8210   58.4290 C.3     0  <0>0        0.0311
     20  C14       -0.9280   28.5310   59.9230 C.ar    0  <0>0       -0.0192
     21  C13       -0.9420   29.4830   58.9210 C.ar    0  <0>0        0.0326
     22  C19       -0.1510   28.7820   61.1890 C.3     0  <0>0        0.0311
     23  O2         1.2350   31.8200   55.3410 O.3     0  <0>0       -0.3791
     24  H25        1.9300   31.7520   54.4910 H       0  <0>0        0.2106
@<TRIPOS>BOND
     1     8     7   ar
     2     8     9   ar
     3     7     6   ar
     4    10     9    1
     5     9    11   ar
     6     6     5   ar
     7    11     5   ar
     8    11    12    1
     9     5     3    1
    10     3     2    1
    11     3     4    1
    12     2     1    1
    13    24    23    1
    14    23     1    1
    15     1    13    1
    16    13    14    1
    17    14    15    1
    18    16    15   ar
    19    16    17   ar
    20    15    21   ar
    21    19    17    1
    22    17    18   ar
    23    21    20   ar
    24    18    20   ar
    25    20    22    1
