@<TRIPOS>MOLECULE
ZINC44270768_replica-1.pdb
 20 21 0 0 0
SMALL
GASTEIGER

@<TRIPOS>ATOM
      1  C1        -0.5690   24.8930   51.7390 C.3     0  <0>0        0.0310
      2  C2        -0.3270   25.9420   52.7930 C.ar    0  <0>0       -0.0179
      3  C3         0.3710   25.6160   53.9420 C.ar    0  <0>0       -0.0030
      4  C4         0.5950   26.5750   54.9110 C.ar    0  <0>0        0.0143
      5  C5         0.1180   27.8670   54.7300 C.ar    0  <0>0        0.0500
      6  C6        -0.5820   28.1910   53.5740 C.ar    0  <0>0        0.0182
      7  C7        -0.7980   27.2280   52.6070 C.ar    0  <0>0        0.0687
      8  N1         0.3420   28.8400   55.7080 N.pl3   0  <0>0       -0.2880
      9  H7         0.8930   29.6130   55.5070 H       0  <0>0        0.1546
     10  C9        -0.2250   28.7000   56.9700 C.2     0  <0>0        0.1859
     11  N2         0.5020   28.9540   58.0480 N.2     0  <0>0       -0.3621
     12  C13       -0.0000   28.8390   59.2640 C.2     0  <0>0        0.2532
     13  C12       -1.3100   28.4340   59.4550 C.3     0  <0>0        0.1166
     14  F4         0.7760   29.1130   60.3360 F       0  <0>0       -0.1738
     15  C11       -2.1020   28.1530   58.3500 C.2     0  <0>0       -0.0122
     16  C10       -1.5480   28.2890   57.0890 C.2     0  <0>0        0.0438
     17  C8        -1.5510   27.5800   51.3510 C.3     0  <0>0        0.4183
     18  F1        -2.3020   28.7400   51.5660 F       0  <0>0       -0.1659
     19  F2        -0.6450   27.7980   50.3080 F       0  <0>0       -0.1659
     20  F3        -2.4070   26.5270   51.0100 F       0  <0>0       -0.1659
@<TRIPOS>BOND
     1    19    17    1
     2    20    17    1
     3    17    18    1
     4    17     7    1
     5     1     2    1
     6     7     2   ar
     7     7     6   ar
     8     2     3   ar
     9     6     5   ar
    10     3     4   ar
    11     5     4   ar
    12     5     8    1
    13     9     8    1
    14     8    10    1
    15    10    16    1
    16    10    11    2
    17    16    15    2
    18    11    12    2
    19    15    13    1
    20    12    13    1
    21    12    14    1
