@<TRIPOS>MOLECULE
ZINC01412364_replica-1.pdb
 30 33 0 0 0
SMALL
GASTEIGER

@<TRIPOS>ATOM
      1  C1        12.2340   33.5850   62.9830 C.2     0  <0>0        0.0053
      2  C2        11.3790   32.4990   62.7240 C.2     0  <0>0        0.0163
      3  C3        10.4020   32.6060   61.8000 C.2     0  <0>0        0.0691
      4  N1        10.2290   33.7700   61.1010 N.pl3   0  <0>0       -0.2406
      5  C4        11.0500   34.8490   61.3310 C.2     0  <0>0        0.1882
      6  C5        12.0750   34.7480   62.2970 C.2     0  <0>0        0.0481
      7  N2        10.6780   35.8390   60.5360 N.2     0  <0>0       -0.3875
      8  C6         9.6350   35.4390   59.7870 C.2     0  <0>0        0.1484
      9  C7         9.3380   34.1370   60.1300 C.3     0  <0>0        0.2125
     10  N3         8.3220   33.3450   59.5910 N.am    0  <0>0       -0.2476
     11  C8         6.9540   33.4600   60.1010 C.3     0  <0>0        0.1225
     12  C9         6.0880   34.1350   59.0670 C.ar    0  <0>0       -0.0023
     13  C14        5.4670   35.3340   59.3620 C.ar    0  <0>0       -0.0027
     14  C13        4.6770   35.9540   58.4130 C.ar    0  <0>0        0.0036
     15  C12        4.4990   35.3700   57.1730 C.ar    0  <0>0        0.0714
     16  C11        5.1160   34.1680   56.8790 C.ar    0  <0>0        0.0036
     17  C10        5.9110   33.5500   57.8280 C.ar    0  <0>0       -0.0027
     18  C15        3.6340   36.0450   56.1390 C.3     0  <0>0        0.4186
     19  F1         3.2830   35.1200   55.1500 F       0  <0>0       -0.1659
     20  F2         2.4760   36.5380   56.7500 F       0  <0>0       -0.1659
     21  F3         4.3420   37.1040   55.5580 F       0  <0>0       -0.1659
     22  C16        8.6010   32.4730   58.6020 C.2     0  <0>0        0.3046
     23  O1         8.5540   31.2800   58.8140 O.2     0  <0>0       -0.2649
     24  C17        8.9280   36.2560   58.7730 C.ar    0  <0>0        0.0290
     25  C22        8.8470   35.8160   57.4530 C.ar    0  <0>0        0.0046
     26  C21        8.1820   36.5760   56.5140 C.ar    0  <0>0        0.0297
     27  C20        7.6050   37.7820   56.8780 C.ar    0  <0>0        0.1401
     28  C19        7.6870   38.2270   58.1870 C.ar    0  <0>0        0.0297
     29  F4         6.9590   38.5260   55.9530 F       0  <0>0       -0.2042
     30  C18        8.3440   37.4700   59.1350 C.ar    0  <0>0        0.0046
@<TRIPOS>BOND
     1    19    18    1
     2    21    18    1
     3    29    27    1
     4    18    20    1
     5    18    15    1
     6    26    27   ar
     7    26    25   ar
     8    27    28   ar
     9    16    15   ar
    10    16    17   ar
    11    15    14   ar
    12    25    24   ar
    13    17    12   ar
    14    28    30   ar
    15    14    13   ar
    16    22    23    2
    17    22    10   am
    18    24    30   ar
    19    24     8    1
    20    12    13   ar
    21    12    11    1
    22    10    11    1
    23    10     9    1
    24     8     9    1
    25     8     7    2
    26     9     4    1
    27     7     5    2
    28     4     5    1
    29     4     3    1
    30     5     6    1
    31     3     2    2
    32     6     1    2
    33     2     1    1
