@<TRIPOS>MOLECULE
ZINC46598803_replica-1.pdb
 24 26 0 0 0
SMALL
GASTEIGER

@<TRIPOS>ATOM
      1  C12        1.6690   32.7130   56.5450 C.3     0  <0>0        0.1363
      2  C13        0.7730   33.9420   56.8020 C.3     0  <0>0        0.0326
      3  C14        1.7750   35.1070   57.0030 C.3     0  <0>0        0.0028
      4  C15        2.8830   34.7860   55.9700 C.3     0  <0>0        0.0028
      5  C16        3.0110   33.2490   56.0150 C.3     0  <0>0        0.0326
      6  C17        1.8810   31.9710   57.7980 C.1     0  <0>0        0.0896
      7  N3         2.0460   31.3990   58.7660 N.1     0  <0>0       -0.1943
      8  N2         1.0480   31.8400   55.5460 N.am    0  <0>0       -0.2944
      9  C11       -0.2200   31.4140   55.7170 C.2     0  <0>0        0.2433
     10  O1        -0.8460   31.7530   56.6990 O.2     0  <0>0       -0.2732
     11  H11        1.5480   31.5690   54.7600 H       0  <0>0        0.1503
     12  C10       -0.8580   30.5160   54.6890 C.3     0  <0>0        0.1770
     13  N1        -0.6080   29.1160   55.0400 N.pl3   0  <0>0       -0.3000
     14  C3        -0.6250   28.1200   54.0550 C.ar    0  <0>0        0.0465
     15  C2        -0.1230   26.8560   54.3150 C.ar    0  <0>0       -0.0064
     16  C4        -1.1510   28.4180   52.8030 C.ar    0  <0>0        0.0462
     17  C1        -0.1430   25.8920   53.3190 C.ar    0  <0>0        0.0289
     18  C9         0.4470   26.4970   55.6630 C.3     0  <0>0        0.0294
     19  C6        -0.6640   26.1880   52.0730 C.ar    0  <0>0        0.1672
     20  C5        -1.1700   27.4540   51.8130 C.ar    0  <0>0        0.1686
     21  F1        -0.6790   25.2440   51.1060 F       0  <0>0       -0.2018
     22  F2        -1.6800   27.7420   50.5960 F       0  <0>0       -0.2018
     23  C8         0.8490   27.7580   56.4270 C.3     0  <0>0        0.0261
     24  C7        -0.3360   28.7330   56.4320 C.3     0  <0>0        0.0916
@<TRIPOS>BOND
     1    22    20    1
     2    21    19    1
     3    20    19   ar
     4    20    16   ar
     5    19    17   ar
     6    16    14   ar
     7    17    15   ar
     8    14    15   ar
     9    14    13    1
    10    15    18    1
    11    12    13    1
    12    12     9    1
    13    11     8    1
    14    13    24    1
    15     8     9   am
    16     8     1    1
    17    18    23    1
    18     9    10    2
    19     4     5    1
    20     4     3    1
    21     5     1    1
    22    23    24    1
    23     1     2    1
    24     1     6    1
    25     2     3    1
    26     6     7    3
