@<TRIPOS>MOLECULE
ZINC37092082_replica-1.pdb
 20 20 0 0 0
SMALL
GASTEIGER

@<TRIPOS>ATOM
      1  C9        -0.5340   27.7320   53.8140 C.ar    0  <0>0        0.0792
      2  C10       -1.1540   27.9590   52.5940 C.ar    0  <0>0        0.0197
      3  C11       -1.1780   26.9630   51.6360 C.ar    0  <0>0        0.0311
      4  C12       -0.5840   25.7380   51.8900 C.ar    0  <0>0        0.1433
      5  C13        0.0350   25.5060   53.1060 C.ar    0  <0>0        0.0678
      6  C14        0.0680   26.5000   54.0680 C.ar    0  <0>0        0.1537
      7  F1        -0.6120   24.7680   50.9500 F       0  <0>0       -0.2041
      8  N1        -0.5090   28.7390   54.7880 N.pl3   0  <0>0       -0.3317
      9  H18        0.1740   28.7320   55.4770 H       0  <0>0        0.1469
     10  C6        -1.5150   29.8040   54.7650 C.3     0  <0>0        0.0691
     11  C5        -2.1810   29.9070   56.1370 C.3     0  <0>0        0.0195
     12  C3        -1.7240   28.7380   57.0150 C.3     0  <0>0        0.0016
     13  C4        -2.9280   27.8620   57.3640 C.3     0  <0>0        0.0001
     14  C2        -1.0960   29.2810   58.3000 C.3     0  <0>0        0.0001
     15  C1        -1.4300   28.3450   59.4640 C.3     0  <0>0        0.0000
     16  C7        -0.8400   31.1360   54.4250 C.3     0  <0>0        0.0195
     17  C8         0.2980   31.3970   55.4150 C.3     0  <0>0        0.0017
     18  O1         0.6820   26.2760   55.2610 O.3     0  <0>0       -0.4741
     19  C15        0.3470   25.0670   55.9460 C.3     0  <0>0        0.2056
     20  C16       -0.1190   25.3970   57.3650 C.3     0  <0>0        0.0512
@<TRIPOS>BOND
     1     7     4    1
     2     3     4   ar
     3     3     2   ar
     4     4     5   ar
     5     2     1   ar
     6     5     6   ar
     7     1     6   ar
     8     1     8    1
     9     6    18    1
    10    16    10    1
    11    16    17    1
    12    10     8    1
    13    10    11    1
    14     8     9    1
    15    18    19    1
    16    19    20    1
    17    11    12    1
    18    12    13    1
    19    12    14    1
    20    14    15    1
