@<TRIPOS>MOLECULE
ZINC66188901_replica-1.pdb
 25 26 0 0 0
SMALL
GASTEIGER

@<TRIPOS>ATOM
      1  N2         0.9160   30.7930   55.5110 N.pl3   0  <0>0       -0.3313
      2  H15        1.7030   30.3400   55.1690 H       0  <0>0        0.1469
      3  C10       -0.1650   31.1720   54.5980 C.3     0  <0>0        0.1085
      4  C9        -1.2790   30.1250   54.6620 C.3     0  <0>0        0.1085
      5  N1        -1.2280   29.2840   53.4630 N.pl3   0  <0>0       -0.3315
      6  H10       -1.5490   29.6290   52.6160 H       0  <0>0        0.1469
      7  C6        -0.7190   27.9860   53.5420 C.ar    0  <0>0        0.0403
      8  C5        -0.0550   27.5670   54.6880 C.ar    0  <0>0        0.0140
      9  C4         0.4480   26.2830   54.7620 C.ar    0  <0>0        0.0009
     10  C3         0.2910   25.4150   53.6970 C.ar    0  <0>0       -0.0045
     11  C2        -0.3700   25.8290   52.5550 C.ar    0  <0>0       -0.0246
     12  C1        -0.5380   24.8790   51.3970 C.3     0  <0>0        0.0307
     13  C7        -0.8700   27.1130   52.4720 C.ar    0  <0>0       -0.0127
     14  C8        -1.5840   27.5660   51.2240 C.3     0  <0>0        0.0320
     15  C11        0.8130   31.0840   56.8760 C.ar    0  <0>0        0.0449
     16  C16        0.6270   32.3960   57.2930 C.ar    0  <0>0        0.0174
     17  C15        0.5200   32.6820   58.6400 C.ar    0  <0>0        0.0382
     18  C14        0.6090   31.6620   59.5750 C.ar    0  <0>0        0.1386
     19  C13        0.8000   30.3540   59.1600 C.ar    0  <0>0        0.0382
     20  C12        0.9020   30.0650   57.8130 C.ar    0  <0>0        0.0174
     21  O1         0.5090   31.9460   60.9020 O.3     0  <0>0       -0.4755
     22  C17        0.5860   30.8450   61.8090 C.3     0  <0>0        0.2053
     23  C18       -0.7180   30.7460   62.6040 C.3     0  <0>0        0.0438
     24  C19       -1.6250   29.6910   61.9660 C.3     0  <0>0        0.0038
     25  C20       -0.4070   30.3460   64.0460 C.3     0  <0>0        0.0038
@<TRIPOS>BOND
     1    14    13    1
     2    12    11    1
     3    13    11   ar
     4    13     7   ar
     5    11    10   ar
     6     6     5    1
     7     5     7    1
     8     5     4    1
     9     7     8   ar
    10    10     9   ar
    11     3     4    1
    12     3     1    1
    13     8     9   ar
    14     2     1    1
    15     1    15    1
    16    15    16   ar
    17    15    20   ar
    18    16    17   ar
    19    20    19   ar
    20    17    18   ar
    21    19    18   ar
    22    18    21    1
    23    21    22    1
    24    22    23    1
    25    24    23    1
    26    23    25    1
