@<TRIPOS>MOLECULE
ZINC20432962_replica-1.pdb
 21 23 0 0 0
SMALL
GASTEIGER

@<TRIPOS>ATOM
      1  C5         1.1680   31.7730   58.5980 C.3     0  <0>0        0.0017
      2  C6         0.4080   30.6050   59.2320 C.3     0  <0>0        0.0071
      3  C7         0.6560   29.3230   58.4370 C.3     0  <0>0        0.0553
      4  C8         0.3310   29.5840   56.9680 C.2     0  <0>0        0.0973
      5  C9         0.2750   30.8630   56.5020 C.3     0  <0>0        0.1021
      6  S1        -0.1270   30.6370   54.7890 S.3     0  <0>0       -0.0765
      7  C10       -0.1880   28.8500   54.8260 C.2     0  <0>0        0.1564
      8  N1         0.0930   28.6110   56.0970 N.2     0  <0>0       -0.4034
      9  C17        0.5030   32.1280   57.2590 C.3     0  <0>0        0.0180
     10  C11       -0.4760   27.8970   53.7340 C.ar    0  <0>0        0.0358
     11  C16       -1.2390   28.2990   52.6360 C.ar    0  <0>0        0.0062
     12  C15       -1.5000   27.4080   51.6170 C.ar    0  <0>0        0.0367
     13  C14       -1.0170   26.1080   51.6880 C.ar    0  <0>0        0.1337
     14  C13       -0.2620   25.7030   52.7820 C.ar    0  <0>0        0.0367
     15  C12        0.0080   26.5890   53.8010 C.ar    0  <0>0        0.0062
     16  O1        -1.2810   25.2310   50.6840 O.3     0  <0>0       -0.5055
     17  H19       -1.6840   25.6360   49.9050 H       0  <0>0        0.2922
     18  C2         1.1190   32.9850   59.5320 C.3     0  <0>0        0.0000
     19  C1         0.3280   34.1110   58.8640 C.3     0  <0>0        0.0000
     20  C3         2.5440   33.4630   59.8220 C.3     0  <0>0        0.0000
     21  C4         0.4370   32.5900   60.8430 C.3     0  <0>0        0.0000
@<TRIPOS>BOND
     1    17    16    1
     2    16    13    1
     3    12    13   ar
     4    12    11   ar
     5    13    14   ar
     6    11    10   ar
     7    14    15   ar
     8    10    15   ar
     9    10     7    1
    10     6     7    1
    11     6     5    1
    12     7     8    2
    13     8     4    2
    14     5     4    1
    15     5     9    1
    16     4     3    1
    17     9     1    1
    18     3     2    1
    19     1     2    1
    20     1    18    1
    21    19    18    1
    22    18    20    1
    23    18    21    1
