@<TRIPOS>MOLECULE
ZINC37588190_replica-1.pdb
 31 34 0 0 0
SMALL
GASTEIGER

@<TRIPOS>ATOM
      1  N1         7.5090   32.6960   58.9150 N.ar    0  <0>0       -0.3190
      2  C12        7.2260   31.3550   59.1690 C.ar    0  <0>0        0.0668
      3  C13        6.8900   30.5440   60.2610 C.ar    0  <0>0        0.0247
      4  C14        6.6870   29.2200   60.0840 C.ar    0  <0>0        0.0370
      5  S1         6.9610   29.0150   58.3320 S.2     0  <0>0       -0.0849
      6  C15        7.3300   30.7050   57.9340 C.ar    0  <0>0        0.0468
      7  C16        7.6660   31.6280   56.9570 C.ar    0  <0>0        0.0297
      8  C17        7.7690   32.8570   57.5700 C.ar    0  <0>0        0.1147
      9  C18        8.1010   34.1210   56.9080 C.2     0  <0>0        0.2617
     10  O1         9.1800   34.6460   57.1060 O.2     0  <0>0       -0.2686
     11  N2         7.2090   34.7020   56.0800 N.am    0  <0>0       -0.3018
     12  H19        6.3690   34.2590   55.8850 H       0  <0>0        0.1497
     13  C19        7.5110   36.0010   55.4750 C.3     0  <0>0        0.0670
     14  C20        6.9480   37.1180   56.3570 C.3     0  <0>0       -0.0557
     15  N3         7.5750   37.0560   57.6840 N.4     0  <0>0        0.3881
     16  C24        6.5370   37.0400   58.7380 C.3     0  <0>0       -0.0774
     17  C23        7.0910   37.8430   59.9300 C.3     0  <0>0       -0.0250
     18  C22        8.4830   38.3360   59.4730 C.3     0  <0>0       -0.0250
     19  C21        8.3810   38.2800   57.9280 C.3     0  <0>0       -0.0774
     20  H32        8.1570   36.2350   57.7570 H       0  <0>0       -0.0796
     21  C11        7.5200   33.7650   59.9160 C.3     0  <0>0        0.1329
     22  C8         8.8620   33.7960   60.6030 C.ar    0  <0>0        0.0004
     23  C7         9.3290   32.6720   61.2580 C.ar    0  <0>0       -0.0027
     24  C6        10.5600   32.7020   61.8870 C.ar    0  <0>0       -0.0045
     25  C5        11.3220   33.8540   61.8600 C.ar    0  <0>0       -0.0228
     26  C10       10.8530   34.9800   61.2100 C.ar    0  <0>0       -0.0045
     27  C9         9.6240   34.9490   60.5770 C.ar    0  <0>0       -0.0027
     28  C2        12.6640   33.8850   62.5470 C.3     0  <0>0        0.0189
     29  C1        12.6260   34.8950   63.6950 C.3     0  <0>0        0.0044
     30  C3        13.7410   34.2970   61.5410 C.3     0  <0>0        0.0044
     31  C4        12.9880   32.4960   63.0990 C.3     0  <0>0        0.0044
@<TRIPOS>BOND
     1    13    11    1
     2    13    14    1
     3    12    11    1
     4    11     9   am
     5    14    15    1
     6     9    10    2
     7     9     8    1
     8     7     8   ar
     9     7     6   ar
    10     8     1   ar
    11    15    20    1
    12    15    19    1
    13    15    16    1
    14    19    18    1
    15     6     5   ar
    16     6     2   ar
    17     5     4   ar
    18    16    17    1
    19     1     2   ar
    20     1    21    1
    21     2     3   ar
    22    18    17    1
    23    21    22    1
    24     4     3   ar
    25    27    22   ar
    26    27    26   ar
    27    22    23   ar
    28    26    25   ar
    29    23    24   ar
    30    30    28    1
    31    25    24   ar
    32    25    28    1
    33    28    31    1
    34    28    29    1
