@<TRIPOS>MOLECULE
ZINC40448550_replica-1.pdb
 18 19 0 0 0
SMALL
GASTEIGER

@<TRIPOS>ATOM
      1  C5         8.1120   35.9250   57.5860 C.2     0  <0>0        0.1201
      2  C6         8.0490   34.5250   57.4910 C.2     0  <0>0        0.1289
      3  C7         8.7150   33.7420   58.4410 C.2     0  <0>0        0.1951
      4  O1         8.6780   32.3910   58.3810 O.2     0  <0>0       -0.2898
      5  C8         9.4250   34.4090   59.4620 C.3     0  <0>0        0.1371
      6  C9        10.1190   33.6940   60.4510 C.2     0  <0>0       -0.0050
      7  C10       10.7960   34.3700   61.4220 C.2     0  <0>0        0.0312
      8  C11       10.8070   35.7630   61.4450 C.2     0  <0>0        0.0087
      9  C12       10.1430   36.4860   60.5000 C.2     0  <0>0        0.0288
     10  C13        9.4350   35.8250   59.4830 C.2     0  <0>0        0.1197
     11  N1         8.7810   36.5180   58.5410 N.2     0  <0>0       -0.4090
     12 Br         11.7290   33.4070   62.7550 Br      0  <0>0       -0.0493
     13  C14        7.3110   33.9050   56.4310 C.1     0  <0>0        0.1056
     14  N2         6.7250   33.4140   55.5910 N.1     0  <0>0       -0.1907
     15  C2         7.3940   36.7650   56.5620 C.3     0  <0>0        0.0474
     16  C1         5.8930   36.4750   56.6260 C.3     0  <0>0        0.0070
     17  C3         7.9200   36.4270   55.1650 C.3     0  <0>0        0.0070
     18  C4         7.6400   38.2470   56.8540 C.3     0  <0>0        0.0070
@<TRIPOS>BOND
     1    17    15    1
     2    14    13    3
     3    13     2    1
     4    15    16    1
     5    15    18    1
     6    15     1    1
     7     2     1    1
     8     2     3    2
     9     1    11    2
    10     4     3    1
    11     3     5    1
    12    11    10    2
    13     5    10    1
    14     5     6    1
    15    10     9    1
    16     6     7    2
    17     9     8    2
    18     7     8    1
    19     7    12    1
