@<TRIPOS>MOLECULE
ZINC06738782_replica-1.pdb
 26 29 0 0 0
SMALL
GASTEIGER

@<TRIPOS>ATOM
      1  C10       -0.6280   30.4720   56.1610 C.3     0  <0>0        0.1807
      2  N2        -0.1800   29.5760   57.2450 N.am    0  <0>0       -0.2440
      3  C11        0.8920   29.9040   57.9540 C.2     0  <0>0        0.2413
      4  O2         1.2860   29.1990   58.8590 O.2     0  <0>0       -0.2736
      5  C12        1.6110   31.1930   57.5900 C.3     0  <0>0        0.1449
      6  S1         0.8550   31.5460   55.9440 S.3     0  <0>0       -0.1041
      7  C6        -0.9220   29.6950   54.9030 C.2     0  <0>0        0.1372
      8  C5        -1.7550   30.2570   53.9380 C.2     0  <0>0        0.0263
      9  C4        -2.0320   29.5680   52.7920 C.2     0  <0>0       -0.0126
     10  C3        -1.4570   28.2940   52.6280 C.3     0  <0>0        0.0993
     11  C2        -1.6950   27.5270   51.4760 C.2     0  <0>0       -0.0148
     12  C7        -0.6200   27.7820   53.6500 C.2     0  <0>0        0.1497
     13  C1        -1.1220   26.2970   51.3530 C.2     0  <0>0       -0.0007
     14  C9        -0.2980   25.7880   52.3530 C.2     0  <0>0        0.0386
     15  C8        -0.0430   26.5050   53.4860 C.2     0  <0>0        0.1596
     16  N1        -0.3850   28.5100   54.7440 N.2     0  <0>0       -0.4043
     17  O1         0.7640   25.9920   54.4520 O.2     0  <0>0       -0.5034
     18  H7         0.3460   25.3030   54.9870 H       0  <0>0        0.2923
     19  C13       -0.8810   28.3960   57.5240 C.ar    0  <0>0        0.0559
     20  C18       -0.2310   27.1710   57.4590 C.ar    0  <0>0        0.0286
     21  C17       -0.9240   26.0070   57.7340 C.ar    0  <0>0        0.0863
     22  C16       -2.2660   26.0640   58.0750 C.ar    0  <0>0        0.1507
     23 Cl         -0.1140   24.4750   57.6520 Cl      0  <0>0       -0.0799
     24  C15       -2.9150   27.2860   58.1410 C.ar    0  <0>0        0.0318
     25  F1        -2.9430   24.9260   58.3440 F       0  <0>0       -0.2033
     26  C14       -2.2250   28.4510   57.8660 C.ar    0  <0>0        0.0173
@<TRIPOS>BOND
     1    13    11    2
     2    13    14    1
     3    11    10    1
     4    14    15    2
     5    10     9    1
     6    10    12    1
     7     9     8    2
     8    15    12    1
     9    15    17    1
    10    12    16    2
    11     8     7    1
    12    17    18    1
    13    16     7    2
    14     7     1    1
    15     6     1    1
    16     6     5    1
    17     1     2    1
    18     2    19    1
    19     2     3   am
    20    20    19   ar
    21    20    21   ar
    22    19    26   ar
    23     5     3    1
    24    23    21    1
    25    21    22   ar
    26    26    24   ar
    27     3     4    2
    28    22    24   ar
    29    22    25    1
