@<TRIPOS>MOLECULE
ZINC05501292_replica-1.pdb
 25 28 0 0 0
SMALL
GASTEIGER

@<TRIPOS>ATOM
      1  N1         7.7760   34.9190   58.6940 N.pl3   0  <0>0       -0.0588
      2  C8         7.6980   35.4230   57.4270 C.2     0  <0>0        0.3364
      3  C9         6.6190   34.7700   56.8000 C.3     0  <0>0        0.1981
      4  C10        6.0750   33.8730   57.7460 C.2     0  <0>0        0.1350
      5  N2         6.7600   33.9690   58.8490 N.2     0  <0>0       -0.0853
      6  C11        6.3160   35.1090   55.4680 C.2     0  <0>0        0.1009
      7  N3         7.0670   36.0250   54.8620 N.2     0  <0>0       -0.2158
      8  C12        8.0670   36.6140   55.4940 C.3     0  <0>0        0.3917
      9  N4         8.3870   36.3310   56.7370 N.2     0  <0>0       -0.0376
     10  S1         4.9810   34.3330   54.6200 S.3     0  <0>0       -0.0938
     11  C13        3.6560   35.5180   54.9690 C.3     0  <0>0        0.0895
     12  C14        2.9250   35.0990   56.2190 C.ar    0  <0>0       -0.0109
     13  C19        2.5100   33.7890   56.3710 C.ar    0  <0>0       -0.0029
     14  C18        1.8390   33.4040   57.5160 C.ar    0  <0>0        0.0064
     15  C17        1.5820   34.3300   58.5110 C.ar    0  <0>0        0.0345
     16  C16        1.9980   35.6420   58.3590 C.ar    0  <0>0        0.0064
     17 Br          0.6630   33.8060   60.0770 Br      0  <0>0       -0.0490
     18  C15        2.6690   36.0250   57.2130 C.ar    0  <0>0       -0.0029
     19  C5         8.7100   35.2900   59.6690 C.ar    0  <0>0        0.1654
     20  C4         8.4840   36.4080   60.4610 C.ar    0  <0>0        0.0423
     21  C3         9.4070   36.7710   61.4220 C.ar    0  <0>0       -0.0007
     22  C2        10.5570   36.0220   61.5970 C.ar    0  <0>0       -0.0216
     23  C1        11.5610   36.4200   62.6460 C.3     0  <0>0        0.0310
     24  C7        10.7850   34.9080   60.8100 C.ar    0  <0>0       -0.0007
     25  C6         9.8630   34.5360   59.8510 C.ar    0  <0>0        0.0423
@<TRIPOS>BOND
     1    10    11    1
     2    10     6    1
     3     7     6    2
     4     7     8    1
     5    11    12    1
     6     6     3    1
     7     8     9    1
     8    12    13   ar
     9    12    18   ar
    10    13    14   ar
    11     9     2    2
    12     3     2    1
    13     3     4    1
    14    18    16   ar
    15     2     1    1
    16    14    15   ar
    17     4     5    2
    18    16    15   ar
    19    15    17    1
    20     1     5    1
    21     1    19    1
    22    19    25   ar
    23    19    20   ar
    24    25    24   ar
    25    20    21   ar
    26    24    22   ar
    27    21    22   ar
    28    22    23    1
