@<TRIPOS>MOLECULE
ZINC51718240_replica-1.pdb
 20 21 0 0 0
SMALL
GASTEIGER

@<TRIPOS>ATOM
      1  C8         7.5620   37.4310   58.3470 C.ar    0  <0>0        0.0592
      2  C9         8.1570   38.4600   57.6320 C.ar    0  <0>0        0.0156
      3  C10        7.8650   38.6310   56.2910 C.ar    0  <0>0        0.0022
      4  C11        6.9810   37.7770   55.6580 C.ar    0  <0>0        0.0127
      5  C12        6.3830   36.7470   56.3630 C.ar    0  <0>0        0.0721
      6  C13        6.6750   36.5660   57.7070 C.ar    0  <0>0        0.0719
      7 Cl          5.2730   35.6770   55.5630 Cl      0  <0>0       -0.0809
      8  N1         7.8560   37.2580   59.7050 N.pl3   0  <0>0       -0.3277
      9  H10        7.2190   36.8120   60.2850 H       0  <0>0        0.1472
     10  C7         9.1240   37.7500   60.2480 C.3     0  <0>0        0.1208
     11  C6         9.9640   36.5820   60.6970 C.ar    0  <0>0        0.0266
     12  C5        10.1520   35.3840   60.0920 C.ar    0  <0>0        0.0040
     13  C4        10.9780   34.4520   60.6930 C.ar    0  <0>0        0.0024
     14  C3        11.5740   34.7650   61.8700 C.ar    0  <0>0        0.0070
     15  S1        10.9650   36.4170   62.1660 S.2     0  <0>0       -0.0939
     16  C2        12.5050   33.9310   62.7130 C.3     0  <0>0        0.0330
     17  C1        13.9290   34.0450   62.1650 C.3     0  <0>0        0.0056
     18  N2         6.0750   35.5210   58.4210 N.pl3   0  <0>0       -0.3025
     19  C14        4.7900   35.7350   59.0930 C.3     0  <0>0        0.1123
     20  C15        6.7320   34.2140   58.4980 C.3     0  <0>0        0.1123
@<TRIPOS>BOND
     1     7     5    1
     2     4     3   ar
     3     4     5   ar
     4     3     2   ar
     5     5     6   ar
     6     2     1   ar
     7     6     1   ar
     8     6    18    1
     9     1     8    1
    10    18    20    1
    11    18    19    1
    12     8    10    1
    13     8     9    1
    14    12    13   ar
    15    12    11   ar
    16    10    11    1
    17    13    14   ar
    18    11    15   ar
    19    14    15   ar
    20    14    16    1
    21    17    16    1
