@<TRIPOS>MOLECULE
ZINC38687743_replica-1.pdb
 35 39 0 0 0
SMALL
GASTEIGER

@<TRIPOS>ATOM
      1  C10       -1.8210   29.6710   57.0540 C.ar    0  <0>0        0.1518
      2  C11       -2.8260   28.7670   56.7400 C.ar    0  <0>0        0.0375
      3  C12       -3.0580   27.6810   57.5600 C.ar    0  <0>0        0.0025
      4  C13       -2.2920   27.4870   58.6960 C.ar    0  <0>0        0.0213
      5  C14       -1.2860   28.3850   59.0140 C.ar    0  <0>0        0.1465
      6  C15       -1.0470   29.4770   58.1870 C.ar    0  <0>0        0.0748
      7  O3        -0.5240   28.2130   60.1220 O.3     0  <0>0       -0.4402
      8  C16       -0.9560   27.4190   61.1160 C.2     0  <0>0        0.1989
      9  C17       -1.9220   26.4890   60.9220 C.2     0  <0>0        0.1026
     10  C18       -2.5610   26.2950   59.5760 C.3     0  <0>0        0.0838
     11  C25       -2.3420   25.6740   62.0220 C.1     0  <0>0        0.1011
     12  N1        -2.6740   25.0260   62.8940 N.1     0  <0>0       -0.1910
     13  N2        -0.4040   27.5550   62.3640 N.pl3   0  <0>0       -0.3284
     14  H13       -0.8920   27.2530   63.1470 H       0  <0>0        0.1451
     15  H14        0.4750   27.9530   62.4660 H       0  <0>0        0.1451
     16  C19       -1.9940   25.0580   58.9280 C.ar    0  <0>0       -0.0133
     17  C24       -2.7630   23.9130   58.8350 C.ar    0  <0>0       -0.0027
     18  C23       -2.2460   22.7800   58.2360 C.ar    0  <0>0        0.0111
     19  C22       -0.9550   22.7880   57.7390 C.ar    0  <0>0        0.0577
     20  C21       -0.1840   23.9330   57.8370 C.ar    0  <0>0        0.0111
     21 Cl         -0.3020   21.3630   56.9930 Cl      0  <0>0       -0.0822
     22  C20       -0.7040   25.0670   58.4320 C.ar    0  <0>0       -0.0027
     23  O2        -1.5910   30.7400   56.2490 O.3     0  <0>0       -0.4206
     24  C9        -0.6800   30.6080   55.2630 C.2     0  <0>0        0.3526
     25  O1         0.1340   31.4890   55.0650 O.2     0  <0>0       -0.2439
     26  C8        -0.6700   29.4010   54.4310 C.ar    0  <0>0        0.1160
     27  C7        -1.3830   29.1450   53.2990 C.ar    0  <0>0        0.0704
     28  C5        -1.2310   27.9110   52.6400 C.ar    0  <0>0        0.0173
     29 Cl         -2.4790   30.3370   52.6730 Cl      0  <0>0       -0.0815
     30  C4        -0.3140   27.0140   53.2350 C.ar    0  <0>0        0.0305
     31  C6        -1.8790   27.4600   51.4600 C.ar    0  <0>0        0.0014
     32  C3        -0.0570   25.7670   52.7050 C.ar    0  <0>0        0.0065
     33  S1         0.2790   27.9070   54.6510 S.2     0  <0>0       -0.0797
     34  C2        -0.7090   25.3680   51.5570 C.ar    0  <0>0        0.0005
     35  C1        -1.6160   26.2290   50.9510 C.ar    0  <0>0        0.0001
@<TRIPOS>BOND
     1    35    31   ar
     2    35    34   ar
     3    31    28   ar
     4    34    32   ar
     5    28    30   ar
     6    28    27   ar
     7    29    27    1
     8    32    30   ar
     9    30    33   ar
    10    27    26   ar
    11    26    33   ar
    12    26    24    1
    13    25    24    2
    14    24    23    1
    15    23     1    1
    16     2     1   ar
    17     2     3   ar
    18    21    19    1
    19     1     6   ar
    20     3     4   ar
    21    19    20   ar
    22    19    18   ar
    23    20    22   ar
    24     6     5   ar
    25    18    17   ar
    26    22    16   ar
    27     4     5   ar
    28     4    10    1
    29    17    16   ar
    30    16    10    1
    31     5     7    1
    32    10     9    1
    33     7     8    1
    34     9     8    2
    35     9    11    1
    36     8    13    1
    37    11    12    3
    38    13    15    1
    39    13    14    1
