@<TRIPOS>MOLECULE
ZINC37884740_replica-1.pdb
 23 24 0 0 0
SMALL
GASTEIGER

@<TRIPOS>ATOM
      1  C10       -2.0730   30.6840   54.8730 C.3     0  <0>0        0.1521
      2  C7        -1.9780   29.8700   56.1380 C.ar    0  <0>0        0.0059
      3  C6        -1.0840   30.2310   57.1280 C.ar    0  <0>0       -0.0022
      4  C5        -0.9980   29.4850   58.2880 C.ar    0  <0>0       -0.0045
      5  C4        -1.8070   28.3780   58.4590 C.ar    0  <0>0       -0.0225
      6  C9        -2.6980   28.0130   57.4670 C.ar    0  <0>0       -0.0045
      7  C8        -2.7870   28.7620   56.3080 C.ar    0  <0>0       -0.0022
      8  C2        -1.7130   27.5640   59.7240 C.3     0  <0>0        0.0224
      9  C1        -1.5700   28.5020   60.9250 C.3     0  <0>0        0.0047
     10  C3        -2.9810   26.7210   59.8830 C.3     0  <0>0        0.0047
     11  C11       -2.5660   29.7950   53.7300 C.3     0  <0>0        0.1214
     12  N1        -1.4360   29.4390   52.8670 N.pl3   0  <0>0       -0.3269
     13  H15       -0.9060   30.1370   52.4500 H       0  <0>0        0.1470
     14  C12       -1.1230   28.0930   52.6420 C.ar    0  <0>0        0.1003
     15  C17       -1.5870   27.4500   51.5020 C.ar    0  <0>0        0.1553
     16  C16       -1.2700   26.1210   51.2810 C.ar    0  <0>0        0.0311
     17  F1        -2.3430   28.1220   50.6060 F       0  <0>0       -0.2028
     18  C15       -0.5020   25.4310   52.2000 C.ar    0  <0>0        0.0047
     19  C14       -0.0420   26.0660   53.3390 C.ar    0  <0>0        0.0311
     20  C13       -0.3500   27.3960   53.5630 C.ar    0  <0>0        0.1553
     21  F2         0.1000   28.0150   54.6760 F       0  <0>0       -0.2028
     22  O1        -0.7850   31.2100   54.5470 O.3     0  <0>0       -0.3783
     23  H19       -0.3660   31.6990   55.2680 H       0  <0>0        0.2109
@<TRIPOS>BOND
     1    17    15    1
     2    16    15   ar
     3    16    18   ar
     4    15    14   ar
     5    18    19   ar
     6    13    12    1
     7    14    12    1
     8    14    20   ar
     9    12    11    1
    10    19    20   ar
    11    20    21    1
    12    11     1    1
    13    22     1    1
    14    22    23    1
    15     1     2    1
    16     2     7   ar
    17     2     3   ar
    18     7     6   ar
    19     3     4   ar
    20     6     5   ar
    21     4     5   ar
    22     5     8    1
    23     8    10    1
    24     8     9    1
