@<TRIPOS>MOLECULE
ZINC02590168_replica-1.pdb
 31 34 0 0 0
SMALL
GASTEIGER

@<TRIPOS>ATOM
      1  C11        8.9900   35.5740   59.0840 C.2     0  <0>0        0.2855
      2  O2         7.9470   36.1930   59.1930 O.2     0  <0>0       -0.2664
      3  N1         9.2750   34.9290   57.9360 N.am    0  <0>0       -0.2599
      4  H6        10.2170   34.3700   57.8390 H       0  <0>0        0.1570
      5  C12        8.4060   34.9700   56.9070 C.2     0  <0>0        0.1590
      6  S1         8.4700   36.2600   55.7830 S.2     0  <0>0       -0.0167
      7  N2         7.4850   33.9950   56.7630 N.am    0  <0>0       -0.1884
      8  C13        6.1370   34.3010   56.8370 C.3     0  <0>0        0.2204
      9  S2         4.8470   33.9780   55.6440 S.3     0  <0>0       -0.0713
     10  C19        3.5060   34.6930   56.5640 C.ar    0  <0>0        0.0437
     11  C14        4.1530   35.1440   57.7370 C.ar    0  <0>0        0.0523
     12  C18        2.1600   34.8570   56.3500 C.ar    0  <0>0        0.0371
     13  N3         5.4820   34.9080   57.7990 N.pl3   0  <0>0       -0.3083
     14  C15        3.3340   35.7820   58.6960 C.ar    0  <0>0        0.0172
     15  H10        6.0160   35.2470   58.7000 H       0  <0>0        0.1491
     16  C16        1.9910   35.9420   58.4760 C.ar    0  <0>0        0.0309
     17  C17        1.3880   35.4870   57.3110 C.ar    0  <0>0        0.1407
     18  F1         0.0610   35.6570   57.1170 F       0  <0>0       -0.2042
     19  C10        9.9340   35.5310   60.2020 C.ar    0  <0>0        0.1987
     20  C9        10.1580   36.5420   61.1120 C.ar    0  <0>0        0.0454
     21  C8        11.1320   36.0760   62.0010 C.ar    0  <0>0        0.0408
     22  C7        11.4650   34.8120   61.6050 C.ar    0  <0>0        0.1464
     23  O1        10.7410   34.4950   60.5190 O.2     0  <0>0       -0.4489
     24  C3        12.4600   33.9380   62.2610 C.ar    0  <0>0        0.0460
     25  C2        13.7910   34.3470   62.3640 C.ar    0  <0>0        0.0039
     26  C1        14.7150   33.5270   62.9790 C.ar    0  <0>0        0.0010
     27  C6        14.3270   32.3020   63.4910 C.ar    0  <0>0        0.0122
     28  C5        13.0090   31.8890   63.3920 C.ar    0  <0>0        0.0683
     29  C4        12.0720   32.7010   62.7800 C.ar    0  <0>0        0.0711
     30 Cl         12.5330   30.3500   64.0380 Cl      0  <0>0       -0.0814
     31 Cl         10.4200   32.1820   62.6560 Cl      0  <0>0       -0.0813
@<TRIPOS>BOND
     1     9    10    1
     2     9     8    1
     3     6     5    2
     4    12    10   ar
     5    12    17   ar
     6    10    11   ar
     7     7     8    1
     8     7     5    1
     9     8    13    1
    10     5     3    1
    11    18    17    1
    12    17    16   ar
    13    11    13    1
    14    11    14   ar
    15    13    15    1
    16     4     3    1
    17     3     1   am
    18    16    14   ar
    19     1     2    2
    20     1    19    1
    21    19    23   ar
    22    19    20   ar
    23    23    22   ar
    24    20    21   ar
    25    22    21   ar
    26    22    24    1
    27    24    25   ar
    28    24    29   ar
    29    25    26   ar
    30    31    29    1
    31    29    28   ar
    32    26    27   ar
    33    28    27   ar
    34    28    30    1
