@<TRIPOS>MOLECULE
ZINC04914544_replica-1.pdb
 29 32 0 0 0
SMALL
GASTEIGER

@<TRIPOS>ATOM
      1  C9         7.0600   35.4110   56.3580 C.3     0  <0>0        0.0573
      2  C10        7.5290   36.5490   55.4500 C.3     0  <0>0        0.0942
      3  C11        7.6450   37.8130   56.2630 C.2     0  <0>0        0.2265
      4  O2         7.4000   38.8840   55.7520 O.2     0  <0>0       -0.2748
      5  N1         8.0210   37.7540   57.5520 N.am    0  <0>0       -0.2875
      6  C12        8.3290   36.5590   58.1490 C.2     0  <0>0        0.0268
      7  C13        7.8960   35.3960   57.6160 C.2     0  <0>0        0.0261
      8  C14        8.2070   34.1610   58.2080 C.2     0  <0>0        0.1706
      9  O3         7.7910   33.1360   57.7040 O.2     0  <0>0       -0.2916
     10  C15        9.0480   34.0860   59.4530 C.3     0  <0>0        0.0736
     11  C16        9.9920   35.2930   59.4890 C.3     0  <0>0        0.0356
     12  C17        9.1550   36.5700   59.4110 C.3     0  <0>0        0.0458
     13  H14        8.0780   38.5740   58.0690 H       0  <0>0        0.1545
     14  C6         5.6110   35.6190   56.7190 C.ar    0  <0>0       -0.0176
     15  C5         4.6900   35.9140   55.7310 C.ar    0  <0>0       -0.0008
     16  C4         3.3630   36.1060   56.0580 C.ar    0  <0>0        0.0366
     17  C3         2.9530   36.0000   57.3800 C.ar    0  <0>0        0.1385
     18  C8         3.8800   35.7040   58.3690 C.ar    0  <0>0        0.0366
     19  C7         5.2050   35.5070   58.0360 C.ar    0  <0>0       -0.0008
     20  O1         1.6470   36.1880   57.7050 O.3     0  <0>0       -0.4755
     21  C2         0.6860   35.3700   57.0330 C.3     0  <0>0        0.2055
     22  C1         0.3230   34.1780   57.9200 C.3     0  <0>0        0.0512
     23  C18       10.7800   35.2800   60.7740 C.ar    0  <0>0       -0.0216
     24  C23       10.7860   36.3960   61.5910 C.ar    0  <0>0       -0.0019
     25  C22       11.5080   36.3850   62.7690 C.ar    0  <0>0        0.0293
     26  C21       12.2240   35.2570   63.1330 C.ar    0  <0>0        0.1401
     27  C20       12.2170   34.1410   62.3140 C.ar    0  <0>0        0.0293
     28  F1        12.9290   35.2450   64.2850 F       0  <0>0       -0.2042
     29  C19       11.4900   34.1510   61.1380 C.ar    0  <0>0       -0.0019
@<TRIPOS>BOND
     1     2     3    1
     2     2     1    1
     3    15    16   ar
     4    15    14   ar
     5     4     3    2
     6    16    17   ar
     7     3     5   am
     8     1    14    1
     9     1     7    1
    10    14    19   ar
    11    21    20    1
    12    21    22    1
    13    17    20    1
    14    17    18   ar
    15     5    13    1
    16     5     6    1
    17     7     6    2
    18     7     8    1
    19     9     8    2
    20    19    18   ar
    21     6    12    1
    22     8    10    1
    23    12    11    1
    24    10    11    1
    25    11    23    1
    26    23    29   ar
    27    23    24   ar
    28    29    27   ar
    29    24    25   ar
    30    27    26   ar
    31    25    26   ar
    32    26    28    1
