@<TRIPOS>MOLECULE
ZINC37199954_replica-1.pdb
 22 23 0 0 0
SMALL
GASTEIGER

@<TRIPOS>ATOM
      1  C1        -2.4540   28.0790   57.6010 C.3     0  <0>0        0.0261
      2  C2        -0.9600   28.1490   57.9250 C.3     0  <0>0        0.0919
      3  C3        -0.7560   28.9470   59.1870 C.ar    0  <0>0       -0.0045
      4  C8        -1.3840   28.5610   60.3560 C.ar    0  <0>0       -0.0014
      5  C7        -1.1950   29.2860   61.5160 C.ar    0  <0>0        0.0142
      6  C6        -0.3810   30.4120   61.5040 C.ar    0  <0>0        0.0479
      7  C5         0.2450   30.8010   60.3260 C.ar    0  <0>0        0.0142
      8  C4         0.0550   30.0670   59.1710 C.ar    0  <0>0       -0.0014
      9  N1        -0.1910   31.1520   62.6740 N.pl3   0  <0>0       -0.3041
     10  C9         0.3280   32.5200   62.6000 C.3     0  <0>0        0.1122
     11  C10       -0.5110   30.5590   63.9750 C.3     0  <0>0        0.1122
     12  N2        -0.2510   28.7950   56.8180 N.pl3   0  <0>0       -0.3306
     13  H15        0.2920   29.5820   56.9830 H       0  <0>0        0.1471
     14  C11       -0.3540   28.2770   55.5240 C.ar    0  <0>0        0.0448
     15  C16       -1.0550   28.9750   54.5490 C.ar    0  <0>0        0.0140
     16  C15       -1.1510   28.4620   53.2700 C.ar    0  <0>0       -0.0030
     17  C14       -0.5590   27.2500   52.9640 C.ar    0  <0>0       -0.0224
     18  C13        0.1340   26.5510   53.9340 C.ar    0  <0>0       -0.0030
     19  C12        0.2390   27.0610   55.2130 C.ar    0  <0>0        0.0140
     20  C17       -0.6720   26.6910   51.5690 C.3     0  <0>0        0.0224
     21  C18       -0.7820   25.1660   51.6370 C.3     0  <0>0        0.0047
     22  C19       -1.9170   27.2630   50.8890 C.3     0  <0>0        0.0047
@<TRIPOS>BOND
     1    22    20    1
     2    20    21    1
     3    20    17    1
     4    17    16   ar
     5    17    18   ar
     6    16    15   ar
     7    18    19   ar
     8    15    14   ar
     9    19    14   ar
    10    14    12    1
    11    12    13    1
    12    12     2    1
    13     1     2    1
    14     2     3    1
    15     8     3   ar
    16     8     7   ar
    17     3     4   ar
    18     7     6   ar
    19     4     5   ar
    20     6     5   ar
    21     6     9    1
    22    10     9    1
    23     9    11    1
