@<TRIPOS>MOLECULE
ZINC15861662_replica-1.pdb
 29 32 0 0 0
SMALL
GASTEIGER

@<TRIPOS>ATOM
      1  C12        7.2990   35.6040   58.6350 C.ar    0  <0>0        0.0531
      2  C13        7.1770   36.5970   59.6020 C.ar    0  <0>0        0.0156
      3  C14        8.1950   36.8120   60.5030 C.ar    0  <0>0        0.0116
      4  C15        9.3550   36.0350   60.4420 C.ar    0  <0>0        0.0685
      5  C16        9.4770   35.0420   59.4650 C.ar    0  <0>0        0.0116
      6  C17        8.4540   34.8330   58.5680 C.ar    0  <0>0        0.0156
      7  C18       10.4170   36.2530   61.3780 C.1     0  <0>0        0.1004
      8  N3        11.2580   36.4280   62.1210 N.1     0  <0>0       -0.1908
      9  N2         6.2620   35.3870   57.7250 N.am    0  <0>0       -0.2676
     10  C4         5.1890   34.5810   57.9950 C.3     0  <0>0        0.1860
     11  C3         4.2660   34.5800   56.7950 C.3     0  <0>0        0.1024
     12  C2         4.9760   35.5030   55.7850 C.3     0  <0>0        0.0546
     13  C1         4.0970   36.7100   55.4520 C.3     0  <0>0        0.0077
     14  C11        6.2290   35.9430   56.5080 C.2     0  <0>0        0.0668
     15  C23        5.3340   34.7340   54.5120 C.3     0  <0>0        0.0077
     16  S1         7.3430   36.9230   55.9110 S.2     0  <0>0       -0.0391
     17  N1         4.9930   33.9260   59.1010 N.pl3   0  <0>0       -0.2175
     18  C5         4.8430   32.5630   59.0730 C.ar    0  <0>0        0.0672
     19  C10        5.8590   31.7580   58.5560 C.ar    0  <0>0        0.0170
     20  C9         5.7030   30.3870   58.5310 C.ar    0  <0>0        0.0127
     21  C8         4.5430   29.8100   59.0190 C.ar    0  <0>0        0.0578
     22  C7         3.5320   30.6040   59.5340 C.ar    0  <0>0        0.0127
     23 Cl          4.3550   28.0840   58.9850 Cl      0  <0>0       -0.0822
     24  C6         3.6790   31.9750   59.5680 C.ar    0  <0>0        0.0170
     25  N4         2.9480   35.1220   57.1520 N.3     0  <0>0       -0.2707
     26  C22        2.9530   35.6640   58.5270 C.3     0  <0>0        0.0722
     27  C21        1.5560   35.4000   59.1220 C.3     0  <0>0        0.0188
     28  C20        0.7810   34.6520   58.0140 C.3     0  <0>0        0.0188
     29  C19        1.9130   34.0560   57.1400 C.3     0  <0>0        0.0722
@<TRIPOS>BOND
     1    15    12    1
     2    13    12    1
     3    12    14    1
     4    12    11    1
     5    16    14    2
     6    14     9    1
     7    11    25    1
     8    11    10    1
     9    29    25    1
    10    29    28    1
    11    25    26    1
    12     9    10    1
    13     9     1    1
    14    10    17    1
    15    28    27    1
    16    26    27    1
    17    20    19   ar
    18    20    21   ar
    19    19    18   ar
    20     6     1   ar
    21     6     5   ar
    22     1     2   ar
    23    23    21    1
    24    21    22   ar
    25    18    17    1
    26    18    24   ar
    27     5     4   ar
    28    22    24   ar
    29     2     3   ar
    30     4     3   ar
    31     4     7    1
    32     7     8    3
