@<TRIPOS>MOLECULE
ZINC41049698_replica-1.pdb
 17 17 0 0 0
SMALL
GASTEIGER

@<TRIPOS>ATOM
      1  C6        -0.2220   29.8490   55.8720 C.3     0  <0>0        0.1619
      2  C7         0.6160   31.0570   55.9340 C.1     0  <0>0        0.0922
      3  N1         1.2640   31.9900   55.9810 N.1     0  <0>0       -0.1942
      4  C3        -1.2980   29.9190   56.9580 C.3     0  <0>0        0.0326
      5  C2        -2.6530   29.5340   56.3590 C.3     0  <0>0        0.0027
      6  C1        -3.0940   28.1830   56.9250 C.3     0  <0>0        0.0001
      7  C4        -0.9460   28.9510   58.0880 C.3     0  <0>0        0.0027
      8  C5        -0.3140   29.7270   59.2460 C.3     0  <0>0        0.0001
      9  N2        -0.8610   29.7650   54.5560 N.pl3   0  <0>0       -0.3225
     10  H13       -1.3490   30.5250   54.2040 H       0  <0>0        0.1477
     11  C8        -0.7670   28.5870   53.8090 C.ar    0  <0>0        0.0454
     12  C13       -1.3830   28.5010   52.5670 C.ar    0  <0>0        0.0152
     13  C12       -1.2850   27.3380   51.8270 C.ar    0  <0>0        0.0127
     14  C11       -0.5830   26.2560   52.3290 C.ar    0  <0>0        0.0578
     15  C10        0.0280   26.3380   53.5670 C.ar    0  <0>0        0.0127
     16 Cl         -0.4660   24.7950   51.4000 Cl      0  <0>0       -0.0822
     17  C9        -0.0630   27.4990   54.3090 C.ar    0  <0>0        0.0152
@<TRIPOS>BOND
     1    16    14    1
     2    13    14   ar
     3    13    12   ar
     4    14    15   ar
     5    12    11   ar
     6    15    17   ar
     7    11    17   ar
     8    11     9    1
     9    10     9    1
    10     9     1    1
    11     1     2    1
    12     1     4    1
    13     2     3    3
    14     5     6    1
    15     5     4    1
    16     4     7    1
    17     7     8    1
