@<TRIPOS>MOLECULE
ZINC12778422_replica-1.pdb
 19 20 0 0 0
SMALL
GASTEIGER

@<TRIPOS>ATOM
      1  C5        11.3980   35.0330   61.6650 C.ar    0  <0>0       -0.0228
      2  C6        10.9800   34.3630   60.5310 C.ar    0  <0>0       -0.0046
      3  C7        10.0680   34.9540   59.6760 C.ar    0  <0>0       -0.0041
      4  C8         9.5730   36.2140   59.9560 C.ar    0  <0>0       -0.0126
      5  C9         9.9940   36.8860   61.0880 C.ar    0  <0>0       -0.0041
      6  C10       10.9040   36.2930   61.9450 C.ar    0  <0>0       -0.0046
      7  C11        8.5790   36.8570   59.0250 C.3     0  <0>0        0.1125
      8  C16        8.7490   36.2790   57.6190 C.3     0  <0>0        0.0148
      9  C15        7.7410   36.9330   56.6730 C.3     0  <0>0        0.0009
     10  C14        7.9800   38.4440   56.6350 C.3     0  <0>0        0.0000
     11  C13        7.8090   39.0220   58.0410 C.3     0  <0>0        0.0009
     12  C12        8.8190   38.3680   58.9880 C.3     0  <0>0        0.0148
     13  C17        7.1810   36.5820   59.5140 C.2     0  <0>0        0.3675
     14  O1         6.6040   35.5780   59.1650 O.co2   0  <0>0       -0.2453
     15  O2         6.5750   37.4520   60.3370 O.co2   0  <0>0       -0.2453
     16  C2        12.3910   34.3890   62.5970 C.3     0  <0>0        0.0189
     17  C1        13.7420   34.2570   61.8900 C.3     0  <0>0        0.0044
     18  C3        12.5530   35.2540   63.8480 C.3     0  <0>0        0.0044
     19  C4        11.8880   33.0010   62.9990 C.3     0  <0>0        0.0044
@<TRIPOS>BOND
     1    10     9    1
     2    10    11    1
     3     9     8    1
     4     8     7    1
     5    11    12    1
     6    12     7    1
     7     7    13    1
     8     7     4    1
     9    14    13   ar
    10    13    15   ar
    11     3     4   ar
    12     3     2   ar
    13     4     5   ar
    14     2     1   ar
    15     5     6   ar
    16     1     6   ar
    17     1    16    1
    18    17    16    1
    19    16    19    1
    20    16    18    1
