@<TRIPOS>MOLECULE
ZINC00407626_replica-1.pdb
 18 19 0 0 0
SMALL
GASTEIGER

@<TRIPOS>ATOM
      1  C5         8.0360   36.4540   56.7520 C.2     0  <0>0        0.1948
      2  N1         8.7880   35.5870   57.3910 N.2     0  <0>0       -0.3881
      3  C6         9.2670   35.8190   58.6340 C.2     0  <0>0        0.1381
      4  C7        10.0810   34.9780   59.4260 C.2     0  <0>0        0.0284
      5  C8        10.4840   35.3690   60.6770 C.2     0  <0>0       -0.0188
      6  C9        10.1110   36.5950   61.2080 C.3     0  <0>0        0.0527
      7  C10        9.3090   37.4410   60.4620 C.2     0  <0>0       -0.0123
      8  C11        8.9070   37.0600   59.2070 C.2     0  <0>0        0.0579
      9  S3         7.9140   37.7940   57.9290 S.3     0  <0>0       -0.0464
     10  S2         7.3260   36.3270   55.1450 S.3     0  <0>0        0.0018
     11  P1         5.5220   35.3180   55.6170 P.3     0  <0>0        0.2380
     12  S1         4.8230   34.5410   54.0740 S.3     0  <0>0        0.0036
     13  O1         5.8180   34.1720   56.7080 O.3     0  <0>0       -0.3097
     14  C2         5.5350   32.7910   56.4820 C.3     0  <0>0        0.1497
     15  C1         4.2240   32.4170   57.1780 C.3     0  <0>0        0.0351
     16  O2         4.4600   36.3690   56.2160 O.3     0  <0>0       -0.3097
     17  C3         3.1290   36.0050   56.5860 C.3     0  <0>0        0.1497
     18  C4         3.0250   35.9330   58.1120 C.3     0  <0>0        0.0351
@<TRIPOS>BOND
     1    12    11    1
     2    10    11    1
     3    10     1    1
     4    11    16    1
     5    11    13    1
     6    16    17    1
     7    14    13    1
     8    14    15    1
     9    17    18    1
    10     1     2    2
    11     1     9    1
    12     2     3    2
    13     9     8    1
    14     3     8    1
    15     3     4    1
    16     8     7    2
    17     4     5    2
    18     7     6    1
    19     5     6    1
