@<TRIPOS>MOLECULE
ZINC64983722_replica-1.pdb
 26 27 0 0 0
SMALL
GASTEIGER

@<TRIPOS>ATOM
      1  C8         0.7150   31.4620   56.9150 C.2     0  <0>0        0.2284
      2  O1         0.0480   32.2480   56.2750 O.2     0  <0>0       -0.2747
      3  N2         0.3860   30.1550   56.9310 N.am    0  <0>0       -0.3056
      4  H10        0.9200   29.5280   57.4420 H       0  <0>0        0.1494
      5  C7         1.9110   31.9480   57.6920 C.3     0  <0>0        0.1288
      6  C6         1.4470   32.7130   58.9040 C.ar    0  <0>0        0.0523
      7  N1         1.3920   34.0520   59.0190 N.ar    0  <0>0       -0.3291
      8  C3         0.9180   34.4060   60.2490 C.ar    0  <0>0        0.0715
      9  C4         0.6590   33.2940   60.9570 C.ar    0  <0>0        0.0028
     10  C5         1.0050   32.1610   60.0890 C.ar    0  <0>0        0.0893
     11  C20        0.1210   33.2230   62.3630 C.3     0  <0>0        0.0328
     12  C2         1.7830   34.9980   57.9700 C.3     0  <0>0        0.1058
     13  C1         0.5350   35.4840   57.2300 C.3     0  <0>0        0.0265
     14  C19        0.8980   30.7340   60.4140 C.2     0  <0>0        0.3886
     15  O2        -0.0850   30.0960   60.0580 O.co2   0  <0>0       -0.2405
     16  O3         1.7910   30.1790   61.0400 O.co2   0  <0>0       -0.2405
     17  C9        -0.7770   29.6830   56.1750 C.3     0  <0>0        0.0720
     18  C10       -1.8280   29.1400   57.1440 C.3     0  <0>0        0.0213
     19  C11       -0.3440   28.5710   55.2160 C.3     0  <0>0        0.0242
     20  C12       -0.6930   28.9710   53.7810 C.3     0  <0>0        0.0280
     21  C13       -0.8220   27.7320   52.9320 C.ar    0  <0>0       -0.0221
     22  C18       -1.5610   27.7680   51.7650 C.ar    0  <0>0       -0.0043
     23  C17       -1.6760   26.6330   50.9850 C.ar    0  <0>0       -0.0003
     24  C16       -1.0610   25.4600   51.3760 C.ar    0  <0>0       -0.0000
     25  C15       -0.3270   25.4220   52.5460 C.ar    0  <0>0       -0.0003
     26  C14       -0.2080   26.5580   53.3250 C.ar    0  <0>0       -0.0043
@<TRIPOS>BOND
     1    23    24   ar
     2    23    22   ar
     3    24    25   ar
     4    22    21   ar
     5    25    26   ar
     6    21    26   ar
     7    21    20    1
     8    20    19    1
     9    19    17    1
    10    17     3    1
    11    17    18    1
    12     2     1    2
    13     1     3   am
    14     1     5    1
    15     3     4    1
    16    13    12    1
    17     5     6    1
    18    12     7    1
    19     6     7   ar
    20     6    10   ar
    21     7     8   ar
    22    15    14   ar
    23    10    14    1
    24    10     9   ar
    25     8     9   ar
    26    14    16   ar
    27     9    11    1
