@<TRIPOS>MOLECULE
ZINC05764799_replica-1.pdb
 25 26 0 0 0
SMALL
GASTEIGER

@<TRIPOS>ATOM
      1  C5        -0.4010   28.9750   55.1300 C.3     0  <0>0        0.2080
      2  C6        -1.0100   30.0500   54.2480 C.1     0  <0>0        0.2055
      3  O1        -1.6280   29.7650   53.2320 O.2     0  <0>0       -0.2123
      4  N1        -0.8430   31.3050   54.6220 N.2     0  <0>0       -0.2552
      5  C7        -0.1750   31.6310   55.7230 C.1     0  <0>0        0.2237
      6  N2        -0.0620   32.9610   56.0190 N.pl3   0  <0>0       -0.2367
      7  N3         0.3910   30.7680   56.5570 N.2     0  <0>0       -0.2552
      8  C15        0.3400   29.4630   56.3600 C.1     0  <0>0        0.2055
      9  O2         0.8670   28.6810   57.1380 O.2     0  <0>0       -0.2123
     10  H10       -0.5300   33.6200   55.4820 H       0  <0>0        0.1657
     11  C8         0.7280   33.3710   57.0980 C.ar    0  <0>0        0.0582
     12  C13        0.1460   33.6010   58.3390 C.ar    0  <0>0        0.0110
     13  C12        0.9300   34.0000   59.4030 C.ar    0  <0>0       -0.0206
     14  C11        2.2900   34.1840   59.2330 C.ar    0  <0>0       -0.0042
     15  C14        0.3010   34.2430   60.7520 C.3     0  <0>0        0.0311
     16  C10        2.8700   33.9630   57.9960 C.ar    0  <0>0        0.0010
     17  C9         2.0940   33.5570   56.9300 C.ar    0  <0>0        0.0153
     18  C4        -1.5240   28.0420   55.5880 C.3     0  <0>0        0.0335
     19  C3        -2.4460   28.7890   56.5530 C.3     0  <0>0        0.0023
     20  C2        -2.7210   27.9130   57.7760 C.3     0  <0>0        0.0001
     21  C1        -1.8120   26.6820   57.7370 C.3     0  <0>0        0.0000
     22  C16        0.5770   28.1590   54.2820 C.3     0  <0>0        0.0335
     23  C17       -0.0240   26.7810   53.9940 C.3     0  <0>0        0.0023
     24  C18       -0.4110   26.6920   52.5160 C.3     0  <0>0        0.0001
     25  C19       -0.5510   25.2230   52.1140 C.3     0  <0>0        0.0000
@<TRIPOS>BOND
     1    25    24    1
     2    24    23    1
     3     3     2    2
     4    23    22    1
     5     2     4    2
     6     2     1    1
     7    22     1    1
     8     4     5    2
     9     1    18    1
    10     1     8    1
    11    10     6    1
    12    18    19    1
    13     5     6    1
    14     5     7    2
    15     6    11    1
    16     8     7    2
    17     8     9    2
    18    19    20    1
    19    17    11   ar
    20    17    16   ar
    21    11    12   ar
    22    21    20    1
    23    16    14   ar
    24    12    13   ar
    25    14    13   ar
    26    13    15    1
