@<TRIPOS>MOLECULE
ZINC49242445_replica-1.pdb
 21 21 0 0 0
SMALL
GASTEIGER

@<TRIPOS>ATOM
      1  N1        10.8760   35.2050   60.4240 N.am    0  <0>0       -0.2863
      2  C8         9.7560   34.8400   59.7700 C.2     0  <0>0        0.3010
      3  O1         8.7790   34.4710   60.3940 O.2     0  <0>0       -0.2528
      4  N2         9.7170   34.8840   58.4240 N.am    0  <0>0       -0.2880
      5  H10       11.6540   35.4990   59.9270 H       0  <0>0        0.1512
      6  H11       10.4950   35.1780   57.9250 H       0  <0>0        0.1510
      7  C6        10.9170   35.1570   61.8880 C.3     0  <0>0        0.1015
      8  C7        11.6010   36.4180   62.4200 C.3     0  <0>0        0.0268
      9  C5        11.6910   33.9410   62.3290 C.ar    0  <0>0        0.0248
     10  C4        13.0200   33.8130   62.5610 C.ar    0  <0>0        0.0039
     11  C3        13.5150   32.5870   62.9630 C.ar    0  <0>0        0.0024
     12  C2        12.6570   31.5480   63.1130 C.ar    0  <0>0        0.0074
     13  C1        12.9460   30.1310   63.5350 C.3     0  <0>0        0.0381
     14  S1        11.0950   32.2940   62.6750 S.2     0  <0>0       -0.0940
     15  C9         8.4990   34.4870   57.7120 C.3     0  <0>0        0.1028
     16  C10        7.9490   35.6850   56.9350 C.3     0  <0>0        0.0867
     17  S2         7.1770   36.8520   58.0900 S.3     0  <0>0       -0.0396
     18  C11        8.2770   38.2940   58.0590 C.3     0  <0>0        0.4438
     19  F1         7.5100   39.4650   58.0390 F       0  <0>0       -0.1602
     20  F2         9.0870   38.2870   59.2000 F       0  <0>0       -0.1602
     21  F3         9.0810   38.2430   56.9150 F       0  <0>0       -0.1602
@<TRIPOS>BOND
     1    21    18    1
     2    16    15    1
     3    16    17    1
     4    15     4    1
     5     6     4    1
     6    19    18    1
     7    18    17    1
     8    18    20    1
     9     4     2   am
    10     2     3    2
    11     2     1   am
    12     5     1    1
    13     1     7    1
    14     7     9    1
    15     7     8    1
    16     9    10   ar
    17     9    14   ar
    18    10    11   ar
    19    14    12   ar
    20    11    12   ar
    21    12    13    1
