@<TRIPOS>MOLECULE
ZINC62123727_replica-1.pdb
 28 29 0 0 0
SMALL
GASTEIGER

@<TRIPOS>ATOM
      1  C9         0.3440   31.7330   56.5380 C.3     0  <0>0        0.1024
      2  C10        0.0720   31.0060   57.8550 C.3     0  <0>0        0.0115
      3  C8         0.3640   30.7210   55.3900 C.3     0  <0>0        0.1834
      4  S1        -1.3190   30.1130   55.0930 S.O2    0  <0>0        0.0736
      5  O1        -2.2620   31.1480   55.3290 O.2     0  <0>0       -0.1528
      6  O2        -1.4880   28.8310   55.6830 O.2     0  <0>0       -0.1528
      7  N1        -1.3900   29.8390   53.4610 N.pl3   0  <0>0       -0.1006
      8  C5        -1.1800   28.5520   52.9590 C.ar    0  <0>0        0.0906
      9  C4        -0.3770   27.6570   53.6540 C.ar    0  <0>0        0.0177
     10  C3        -0.1720   26.3850   53.1550 C.ar    0  <0>0       -0.0029
     11  C2        -0.7650   26.0040   51.9650 C.ar    0  <0>0       -0.0218
     12  C1        -0.5390   24.6160   51.4240 C.3     0  <0>0        0.0310
     13  C7        -1.5600   26.8950   51.2690 C.ar    0  <0>0       -0.0029
     14  C6        -1.7750   28.1660   51.7650 C.ar    0  <0>0        0.0177
     15  C11        1.6780   32.4290   56.6150 C.2     0  <0>0        0.2274
     16  O3         2.5530   31.9870   57.3300 O.2     0  <0>0       -0.2747
     17  N2         1.9000   33.5440   55.8910 N.am    0  <0>0       -0.2839
     18  H14        1.2250   33.8610   55.2700 H       0  <0>0        0.1549
     19  C12        3.1020   34.2460   56.0360 C.ar    0  <0>0        0.0503
     20  C17        3.2810   35.1040   57.1140 C.ar    0  <0>0        0.0143
     21  C16        4.4700   35.7900   57.2580 C.ar    0  <0>0       -0.0030
     22  C15        5.4770   35.6340   56.3230 C.ar    0  <0>0       -0.0227
     23  C14        5.3010   34.7860   55.2460 C.ar    0  <0>0       -0.0030
     24  C13        4.1150   34.0920   55.1000 C.ar    0  <0>0        0.0143
     25  C18        6.7720   36.3900   56.4800 C.3     0  <0>0        0.0189
     26  C19        6.9050   36.8780   57.9250 C.3     0  <0>0        0.0044
     27  C20        7.9460   35.4680   56.1440 C.3     0  <0>0        0.0044
     28  C21        6.7800   37.5920   55.5340 C.3     0  <0>0        0.0044
@<TRIPOS>BOND
     1    13    14   ar
     2    13    11   ar
     3    12    11    1
     4    14     8   ar
     5    11    10   ar
     6     8     7    1
     7     8     9   ar
     8    10     9   ar
     9     7     4    1
    10     4     5    2
    11     4     3    1
    12     4     6    2
    13    24    23   ar
    14    24    19   ar
    15    23    22   ar
    16    18    17    1
    17     3     1    1
    18    28    25    1
    19    17    19    1
    20    17    15   am
    21    19    20   ar
    22    27    25    1
    23    22    25    1
    24    22    21   ar
    25    25    26    1
    26     1    15    1
    27     1     2    1
    28    15    16    2
    29    20    21   ar
