@<TRIPOS>MOLECULE
ZINC64675594_replica-1.pdb
 32 36 0 0 0
SMALL
GASTEIGER

@<TRIPOS>ATOM
      1  C14        9.2050   33.7450   60.2670 C.3     0  <0>0        0.1321
      2  C15        9.4400   34.9860   59.7560 C.2     0  <0>0        0.1288
      3  N2        10.5530   35.4720   60.3290 N.2     0  <0>0       -0.3893
      4  C16       11.0270   34.5790   61.1850 C.2     0  <0>0        0.1870
      5  N3        10.1980   33.4860   61.1700 N.pl3   0  <0>0       -0.2567
      6  C17       10.4580   32.4100   61.9690 C.2     0  <0>0        0.0676
      7  C18       11.5300   32.4050   62.7890 C.2     0  <0>0        0.0163
      8  C19       12.3950   33.5100   62.8300 C.2     0  <0>0        0.0053
      9  C20       12.1540   34.5850   62.0330 C.2     0  <0>0        0.0480
     10  C13        8.0610   32.8320   59.9080 C.3     0  <0>0        0.0370
     11  C12        8.4120   32.0510   58.6390 C.3     0  <0>0        0.0872
     12  C11        7.2670   32.1380   57.6630 C.2     0  <0>0        0.2227
     13  N1         6.5790   33.2890   57.5330 N.am    0  <0>0       -0.3022
     14  H12        6.8200   34.0620   58.0690 H       0  <0>0        0.1497
     15  O1         6.9660   31.1720   56.9930 O.2     0  <0>0       -0.2751
     16  C10        5.4660   33.3750   56.5850 C.3     0  <0>0        0.0938
     17  C4         4.4240   34.3190   57.1240 C.ar    0  <0>0       -0.0085
     18  C3         4.1200   34.2430   58.4770 C.ar    0  <0>0       -0.0030
     19  C5         3.7740   35.2370   56.3300 C.ar    0  <0>0       -0.0246
     20  C2         3.1700   35.0750   59.0310 C.ar    0  <0>0       -0.0003
     21  C1         2.5140   35.9940   58.2330 C.ar    0  <0>0       -0.0003
     22  C6         2.8150   36.0730   56.8890 C.ar    0  <0>0       -0.0045
     23  C7         4.0640   35.3880   54.8600 C.3     0  <0>0        0.0262
     24  C8         4.7890   34.1530   54.3260 C.3     0  <0>0        0.0067
     25  C9         5.9900   33.8670   55.2360 C.3     0  <0>0        0.0245
     26  C21        8.6100   35.6810   58.7430 C.ar    0  <0>0        0.0272
     27  C26        9.0060   35.6980   57.4070 C.ar    0  <0>0        0.0046
     28  C25        8.2280   36.3420   56.4670 C.ar    0  <0>0        0.0297
     29  C24        7.0600   36.9800   56.8510 C.ar    0  <0>0        0.1401
     30  C23        6.6640   36.9700   58.1790 C.ar    0  <0>0        0.0297
     31  F1         6.3040   37.6130   55.9280 F       0  <0>0       -0.2042
     32  C22        7.4340   36.3240   59.1240 C.ar    0  <0>0        0.0046
@<TRIPOS>BOND
     1    24    23    1
     2    24    25    1
     3    23    19    1
     4    25    16    1
     5    31    29    1
     6    19    22   ar
     7    19    17   ar
     8    28    29   ar
     9    28    27   ar
    10    16    17    1
    11    16    13    1
    12    29    30   ar
    13    22    21   ar
    14    15    12    2
    15    17    18   ar
    16    27    26   ar
    17    13    12   am
    18    13    14    1
    19    12    11    1
    20    30    32   ar
    21    21    20   ar
    22    18    20   ar
    23    11    10    1
    24    26    32   ar
    25    26     2    1
    26     2     1    1
    27     2     3    2
    28    10     1    1
    29     1     5    1
    30     3     4    2
    31     5     4    1
    32     5     6    1
    33     4     9    1
    34     6     7    2
    35     9     8    2
    36     7     8    1
