@<TRIPOS>MOLECULE
ZINC50274163_replica-1.pdb
 29 31 0 0 0
SMALL
GASTEIGER

@<TRIPOS>ATOM
      1  N1         6.9710   36.5290   60.1190 N.3     0  <0>0       -0.2903
      2  H22        7.1400   37.0610   60.9600 H       0  <0>0        0.1238
      3  C11        8.1910   36.4210   59.3100 C.3     0  <0>0        0.0770
      4  C8         9.3280   35.9390   60.1760 C.ar    0  <0>0       -0.0080
      5  C7         9.8350   36.7560   61.1680 C.ar    0  <0>0       -0.0033
      6  C6        10.8770   36.3130   61.9620 C.ar    0  <0>0       -0.0046
      7  C5        11.4110   35.0530   61.7630 C.ar    0  <0>0       -0.0225
      8  C10       10.9050   34.2380   60.7670 C.ar    0  <0>0       -0.0046
      9  C9         9.8610   34.6790   59.9760 C.ar    0  <0>0       -0.0033
     10  C3        12.5460   34.5700   62.6280 C.3     0  <0>0        0.0223
     11  C4        13.8060   34.4080   61.7740 C.3     0  <0>0        0.0047
     12  C2        12.1740   33.2230   63.2500 C.3     0  <0>0        0.0044
     13  C1        13.3340   32.2400   63.0670 C.3     0  <0>0        0.0003
     14  C12        8.5400   37.7930   58.7300 C.3     0  <0>0        0.0186
     15  C13        8.6040   37.7000   57.2030 C.3     0  <0>0        0.0017
     16  C14        7.4660   38.8060   59.1330 C.3     0  <0>0        0.0017
     17  C15        6.4310   35.2000   60.4380 C.3     0  <0>0        0.1106
     18  C16        5.0280   35.0840   59.8980 C.2     0  <0>0        0.0441
     19  N3         4.1370   34.2950   60.4920 N.pl3   0  <0>0       -0.3117
     20  C21        2.9150   34.1900   60.0350 C.3     0  <0>0        0.2082
     21  H30        4.3960   33.7910   61.2800 H       0  <0>0        0.1488
     22  N2         2.4540   34.8530   58.9290 N.am    0  <0>0       -0.2343
     23  S1         1.4910   33.2600   60.5610 S.3     0  <0>0       -0.0723
     24  C18        3.3460   35.6680   58.2920 C.2     0  <0>0        0.2554
     25  C19        1.1450   34.6310   58.5750 C.2     0  <0>0        0.0403
     26  C17        4.6480   35.7890   58.7770 C.2     0  <0>0        0.0696
     27  O1         3.0030   36.2910   57.2980 O.2     0  <0>0       -0.2695
     28  C20        0.3700   33.8080   59.2820 C.2     0  <0>0        0.0446
     29  C22        0.5740   35.3300   57.3680 C.3     0  <0>0        0.0481
@<TRIPOS>BOND
     1    15    14    1
     2    27    24    2
     3    29    25    1
     4    24    26    1
     5    24    22   am
     6    25    22    1
     7    25    28    2
     8    14    16    1
     9    14     3    1
    10    26    18    2
    11    22    20    1
    12    28    23    1
    13     3     1    1
    14     3     4    1
    15    18    17    1
    16    18    19    1
    17     9     4   ar
    18     9     8   ar
    19    20    19    1
    20    20    23    1
    21     1    17    1
    22     1     2    1
    23     4     5   ar
    24    19    21    1
    25     8     7   ar
    26     5     6   ar
    27     7     6   ar
    28     7    10    1
    29    11    10    1
    30    10    12    1
    31    13    12    1
