@<TRIPOS>MOLECULE
ZINC66541637_replica-1.pdb
 24 25 0 0 0
SMALL
GASTEIGER

@<TRIPOS>ATOM
      1  C4        12.0120   33.8500   62.2820 C.3     0  <0>0        0.0750
      2  C5        10.7620   33.6820   61.4170 C.3     0  <0>0        0.0234
      3  C6        10.5400   34.9510   60.5910 C.3     0  <0>0        0.0453
      4  C7        10.3560   36.1450   61.5270 C.3     0  <0>0        0.1690
      5  C8        11.6060   36.3130   62.3940 C.3     0  <0>0        0.0453
      6  C9        11.8280   35.0440   63.2200 C.3     0  <0>0        0.0234
      7  O3        10.1490   37.3300   60.7560 O.3     0  <0>0       -0.4520
      8  C10        8.9070   37.5490   60.2950 C.2     0  <0>0        0.3214
      9  O4         7.9520   37.1780   60.9340 O.2     0  <0>0       -0.2497
     10  C11        8.7060   38.2580   58.9810 C.3     0  <0>0        0.1359
     11  C12        8.1970   37.2790   57.9550 C.ar    0  <0>0       -0.0110
     12  C17        7.1970   37.6540   57.0770 C.ar    0  <0>0       -0.0014
     13  C16        6.7340   36.7590   56.1320 C.ar    0  <0>0        0.0293
     14  C15        7.2640   35.4810   56.0730 C.ar    0  <0>0        0.1401
     15  C14        8.2610   35.1040   56.9550 C.ar    0  <0>0        0.0293
     16  F1         6.8080   34.6030   55.1530 F       0  <0>0       -0.2042
     17  C13        8.7270   36.0030   57.8960 C.ar    0  <0>0       -0.0014
     18  N1        12.2240   32.6350   63.0740 N.am    0  <0>0       -0.2723
     19  C3        13.4720   32.1650   63.2650 C.2     0  <0>0        0.4016
     20  O2        14.4220   32.7470   62.7800 O.2     0  <0>0       -0.2264
     21  H6        11.4650   32.1710   63.4610 H       0  <0>0        0.1527
     22  O1        13.6670   31.0490   63.9930 O.3     0  <0>0       -0.4347
     23  C2        12.8880   29.9030   63.6440 C.3     0  <0>0        0.2102
     24  C1        12.2790   29.2940   64.9090 C.3     0  <0>0        0.0513
@<TRIPOS>BOND
     1    16    14    1
     2    14    13   ar
     3    14    15   ar
     4    13    12   ar
     5    15    17   ar
     6    12    11   ar
     7    17    11   ar
     8    11    10    1
     9    10     8    1
    10     8     7    1
    11     8     9    2
    12     3     2    1
    13     3     4    1
    14     7     4    1
    15     2     1    1
    16     4     5    1
    17     1    18    1
    18     1     6    1
    19     5     6    1
    20    20    19    2
    21    18    19   am
    22    18    21    1
    23    19    22    1
    24    23    22    1
    25    23    24    1
