@<TRIPOS>MOLECULE
ZINC02281619_replica-1.pdb
 28 31 0 0 0
SMALL
GASTEIGER

@<TRIPOS>ATOM
      1  C10        0.1860   30.8610   55.4620 C.3     0  <0>0        0.1524
      2  C9        -0.4380   30.4940   54.1140 C.3     0  <0>0        0.1187
      3  N1        -1.2580   29.2900   54.2660 N.pl3   0  <0>0       -0.3309
      4  H11       -1.9720   29.2700   54.9220 H       0  <0>0        0.1469
      5  C8        -1.0120   28.1710   53.4660 C.ar    0  <0>0        0.0406
      6  C3        -0.2380   27.1260   53.9500 C.ar    0  <0>0       -0.0091
      7  C4         0.0030   26.0210   53.1560 C.ar    0  <0>0       -0.0031
      8  C5        -0.5270   25.9570   51.8810 C.ar    0  <0>0       -0.0002
      9  C6        -1.2990   26.9960   51.3950 C.ar    0  <0>0        0.0012
     10  C7        -1.5470   28.1020   52.1850 C.ar    0  <0>0        0.0140
     11  C2         0.3390   27.1950   55.3400 C.3     0  <0>0        0.0276
     12  C1         0.2600   25.8150   55.9950 C.3     0  <0>0        0.0051
     13  C11       -0.9200   31.2260   56.4530 C.3     0  <0>0        0.1369
     14  N2        -0.7870   30.4020   57.6570 N.ar    0  <0>0       -0.3246
     15  C19       -1.5050   29.2460   57.9090 C.ar    0  <0>0        0.0600
     16  C18       -1.1060   28.7400   59.1550 C.ar    0  <0>0        0.0172
     17  C20       -2.4770   28.5700   57.1790 C.ar    0  <0>0        0.0172
     18  C17       -0.0800   29.6640   59.6730 C.ar    0  <0>0        0.0172
     19  C23       -1.6810   27.5720   59.6500 C.ar    0  <0>0        0.0015
     20  C12        0.0750   30.6690   58.7060 C.ar    0  <0>0        0.0600
     21  C16        0.6790   29.6950   60.8400 C.ar    0  <0>0        0.0015
     22  C13        0.9940   31.6900   58.9280 C.ar    0  <0>0        0.0172
     23  C14        1.7350   31.7120   60.0900 C.ar    0  <0>0        0.0015
     24  C15        1.5810   30.7180   61.0430 C.ar    0  <0>0        0.0001
     25  C22       -2.6420   26.9160   58.9110 C.ar    0  <0>0        0.0001
     26  C21       -3.0370   27.4150   57.6790 C.ar    0  <0>0        0.0015
     27  O1         1.0620   31.9770   55.2930 O.3     0  <0>0       -0.3807
     28  H24        1.7260   32.0640   55.9900 H       0  <0>0        0.2105
@<TRIPOS>BOND
     1     9     8   ar
     2     9    10   ar
     3     8     7   ar
     4    10     5   ar
     5     7     6   ar
     6     5     6   ar
     7     5     3    1
     8     6    11    1
     9     2     3    1
    10     2     1    1
    11     3     4    1
    12    27     1    1
    13    27    28    1
    14    11    12    1
    15     1    13    1
    16    13    14    1
    17    17    26   ar
    18    17    15   ar
    19    14    15   ar
    20    14    20   ar
    21    26    25   ar
    22    15    16   ar
    23    20    22   ar
    24    20    18   ar
    25    25    19   ar
    26    22    23   ar
    27    16    19   ar
    28    16    18   ar
    29    18    21   ar
    30    23    24   ar
    31    21    24   ar
