@<TRIPOS>MOLECULE
ZINC37333972_replica-1.pdb
 22 23 0 0 0
SMALL
GASTEIGER

@<TRIPOS>ATOM
      1  C9         9.3380   34.6220   60.3320 C.ar    0  <0>0        0.0580
      2  C10        9.5120   35.9360   60.7490 C.ar    0  <0>0        0.0152
      3  C11        9.2260   36.9770   59.8900 C.ar    0  <0>0        0.0052
      4  C12        8.7640   36.7240   58.6090 C.ar    0  <0>0        0.0722
      5  C13        8.5850   35.4270   58.1770 C.ar    0  <0>0        0.0154
      6  C14        8.8750   34.3620   59.0330 C.ar    0  <0>0        0.0817
      7  C15        8.6970   33.0120   58.5880 C.1     0  <0>0        0.1017
      8  N2         8.5550   31.9420   58.2360 N.1     0  <0>0       -0.1908
      9  N1         9.6250   33.5700   61.1960 N.pl3   0  <0>0       -0.3120
     10  H10        8.9380   32.9220   61.4160 H       0  <0>0        0.1522
     11  C5        10.9030   33.4470   61.7460 C.ar    0  <0>0        0.0480
     12  C4        11.8460   34.4490   61.5500 C.ar    0  <0>0        0.0143
     13  C3        13.1070   34.3240   62.0950 C.ar    0  <0>0       -0.0033
     14  C2        13.4340   33.2040   62.8390 C.ar    0  <0>0       -0.0257
     15  C1        14.8120   33.0720   63.4340 C.3     0  <0>0        0.0307
     16  C7        12.5000   32.2030   63.0310 C.ar    0  <0>0       -0.0246
     17  C6        11.2340   32.3230   62.4920 C.ar    0  <0>0        0.0100
     18  C8        12.8620   30.9810   63.8360 C.3     0  <0>0        0.0307
     19  C16        8.4570   37.8720   57.6830 C.3     0  <0>0        0.4186
     20  F1         8.9540   37.5870   56.4060 F       0  <0>0       -0.1659
     21  F2         7.0720   38.0580   57.6140 F       0  <0>0       -0.1659
     22  F3         9.0600   39.0370   58.1690 F       0  <0>0       -0.1659
@<TRIPOS>BOND
     1    20    19    1
     2    21    19    1
     3    19    22    1
     4    19     4    1
     5     5     4   ar
     6     5     6   ar
     7     8     7    3
     8     7     6    1
     9     4     3   ar
    10     6     1   ar
    11     3     2   ar
    12     1     2   ar
    13     1     9    1
    14     9    10    1
    15     9    11    1
    16    12    11   ar
    17    12    13   ar
    18    11    17   ar
    19    13    14   ar
    20    17    16   ar
    21    14    16   ar
    22    14    15    1
    23    16    18    1
