@<TRIPOS>MOLECULE
ZINC00513974_replica-1.pdb
 24 26 0 0 0
SMALL
GASTEIGER

@<TRIPOS>ATOM
      1  N1         8.4750   36.0930   58.8510 N.pl3   0  <0>0       -0.2758
      2  C9         7.1870   35.6260   59.0230 C.cat   0  <0>0        0.2421
      3  N2         6.7760   34.9070   60.0380 N.2     0  <0>0       -0.3753
      4  C10        5.4580   34.6160   59.8870 C.2     0  <0>0        0.1342
      5  C11        4.5410   33.8920   60.6530 C.2     0  <0>0        0.0297
      6  C12        3.2370   33.7710   60.2260 C.2     0  <0>0        0.0021
      7  C13        2.8280   34.3620   59.0410 C.2     0  <0>0       -0.0024
      8  C14        3.7210   35.0810   58.2720 C.2     0  <0>0        0.0005
      9  C15        5.0380   35.2120   58.6870 C.3     0  <0>0        0.1509
     10  N3         6.1510   35.8490   58.1620 N.pl3   0  <0>0       -0.2631
     11  H10        8.7170   36.5560   58.0340 H       0  <0>0        0.1558
     12  C6         9.4300   35.9000   59.8570 C.ar    0  <0>0        0.0512
     13  C5        10.1970   34.7440   59.8740 C.ar    0  <0>0        0.0178
     14  C4        11.1380   34.5540   60.8670 C.ar    0  <0>0        0.0382
     15  C3        11.3170   35.5180   61.8470 C.ar    0  <0>0        0.1386
     16  C8        10.5500   36.6750   61.8310 C.ar    0  <0>0        0.0382
     17  C7         9.6130   36.8690   60.8360 C.ar    0  <0>0        0.0178
     18  O1        12.2440   35.3310   62.8230 O.3     0  <0>0       -0.4755
     19  C2        12.6850   33.9920   63.0520 C.3     0  <0>0        0.2055
     20  C1        14.1350   33.8450   62.5900 C.3     0  <0>0        0.0512
     21  C16        6.2060   36.6120   56.9120 C.3     0  <0>0        0.0950
     22  C17        6.7120   35.7090   55.7860 C.3     0  <0>0        0.0199
     23  C18        5.5300   35.2510   54.9300 C.3     0  <0>0        0.0018
     24  C19        7.7010   36.4850   54.9150 C.3     0  <0>0        0.0018
@<TRIPOS>BOND
     1    24    22    1
     2    23    22    1
     3    22    21    1
     4    21    10    1
     5    11     1    1
     6    10     9    1
     7    10     2    1
     8     8     9    1
     9     8     7    2
    10     9     4    1
    11     1     2    1
    12     1    12    1
    13     2     3    2
    14     7     6    1
    15    12    13   ar
    16    12    17   ar
    17    13    14   ar
    18     4     3    2
    19     4     5    1
    20     6     5    2
    21    17    16   ar
    22    14    15   ar
    23    16    15   ar
    24    15    18    1
    25    20    19    1
    26    18    19    1
