@<TRIPOS>MOLECULE
ZINC39709473_replica-1.pdb
 24 26 0 0 0
SMALL
GASTEIGER

@<TRIPOS>ATOM
      1  C7         5.6840   35.7330   57.5790 C.2     0  <0>0        0.0915
      2  C8         6.3240   36.4640   58.5140 C.3     0  <0>0        0.1389
      3  C9         7.7350   36.5930   57.9700 C.3     0  <0>0        0.2037
      4  N1         7.6750   35.8520   56.7000 N.pl3   0  <0>0       -0.1239
      5  N2         6.5300   35.4140   56.5660 N.2     0  <0>0       -0.1653
      6 Br          5.6260   37.1640   60.1260 Br      0  <0>0       -0.0714
      7  N3         8.7010   35.9790   58.8860 N.am    0  <0>0       -0.2831
      8  C10        9.3310   36.7350   59.8070 C.2     0  <0>0        0.2470
      9  O1         9.1000   37.9270   59.8770 O.2     0  <0>0       -0.2701
     10  H6         8.8850   35.0290   58.8300 H       0  <0>0        0.1513
     11  C11       10.3040   36.1160   60.7300 C.ar    0  <0>0        0.0534
     12  C16       10.7450   36.8150   61.8560 C.ar    0  <0>0        0.0054
     13  C15       11.6500   36.2300   62.7170 C.ar    0  <0>0        0.0115
     14  C14       12.1290   34.9550   62.4610 C.ar    0  <0>0        0.0577
     15  C13       11.7010   34.2600   61.3430 C.ar    0  <0>0        0.0115
     16 Cl         13.2730   34.2280   63.5460 Cl      0  <0>0       -0.0822
     17  C12       10.7920   34.8320   60.4770 C.ar    0  <0>0        0.0054
     18  C6         4.2580   35.3300   57.6480 C.ar    0  <0>0        0.0161
     19  C1         3.2970   36.0260   56.9140 C.ar    0  <0>0        0.0021
     20  C2         1.9730   35.6470   56.9830 C.ar    0  <0>0        0.0114
     21  C3         1.5960   34.5780   57.7770 C.ar    0  <0>0        0.0577
     22  C4         2.5460   33.8830   58.5080 C.ar    0  <0>0        0.0114
     23 Cl         -0.0730   34.1060   57.8590 Cl      0  <0>0       -0.0822
     24  C5         3.8730   34.2540   58.4470 C.ar    0  <0>0        0.0021
@<TRIPOS>BOND
     1     5     4    1
     2     5     1    2
     3     4     3    1
     4    19    20   ar
     5    19    18   ar
     6    20    21   ar
     7     1    18    1
     8     1     2    1
     9    18    24   ar
    10    21    23    1
    11    21    22   ar
    12     3     2    1
    13     3     7    1
    14    24    22   ar
    15     2     6    1
    16    10     7    1
    17     7     8   am
    18     8     9    2
    19     8    11    1
    20    17    11   ar
    21    17    15   ar
    22    11    12   ar
    23    15    14   ar
    24    12    13   ar
    25    14    13   ar
    26    14    16    1
