@<TRIPOS>MOLECULE
ZINC13224723_replica-1.pdb
 28 29 0 0 0
SMALL
GASTEIGER

@<TRIPOS>ATOM
      1  C12        8.8900   33.9900   59.9370 C.2     0  <0>0        0.2672
      2  O2         9.4390   34.2450   58.8850 O.2     0  <0>0       -0.2711
      3  N1         9.5090   34.2590   61.1040 N.am    0  <0>0       -0.2986
      4  H16        9.0420   34.1230   61.9430 H       0  <0>0        0.1498
      5  C11        7.5160   33.3720   59.9380 C.3     0  <0>0        0.2893
      6  O1         6.6360   34.1670   60.7350 O.3     0  <0>0       -0.4659
      7  C4         5.4240   34.4720   60.2000 C.ar    0  <0>0        0.1350
      8  C3         4.3390   33.6370   60.4160 C.ar    0  <0>0        0.0332
      9  C2         3.1090   33.9490   59.8710 C.ar    0  <0>0       -0.0083
     10  C1         1.9290   33.0400   60.1050 C.3     0  <0>0        0.0320
     11  C7         2.9580   35.0940   59.1110 C.ar    0  <0>0        0.0536
     12  C6         4.0400   35.9310   58.8950 C.ar    0  <0>0        0.0098
     13 Cl          1.4110   35.4850   58.4280 Cl      0  <0>0       -0.0826
     14  C5         5.2700   35.6240   59.4410 C.ar    0  <0>0        0.0123
     15  C8         6.4460   36.5380   59.2100 C.3     0  <0>0        0.0254
     16  C9         6.6450   36.7440   57.7080 C.3     0  <0>0        0.0048
     17  C10        6.1820   37.8880   59.8810 C.3     0  <0>0        0.0048
     18  C13       10.8870   34.7560   61.1040 C.3     0  <0>0        0.1054
     19  C14       10.9280   36.1430   61.7470 C.3     0  <0>0        0.1381
     20  C15        9.7010   36.9210   61.3450 C.2     0  <0>0        0.3669
     21  O3         9.6310   37.4100   60.2420 O.co2   0  <0>0       -0.2456
     22  O4         8.6840   37.0670   62.2090 O.co2   0  <0>0       -0.2456
     23  C16       11.7610   33.8120   61.8890 C.ar    0  <0>0       -0.0040
     24  C21       13.0970   34.1090   62.0850 C.ar    0  <0>0       -0.0027
     25  C20       13.8980   33.2430   62.8040 C.ar    0  <0>0       -0.0003
     26  C19       13.3640   32.0800   63.3280 C.ar    0  <0>0       -0.0000
     27  C18       12.0290   31.7830   63.1330 C.ar    0  <0>0       -0.0003
     28  C17       11.2260   32.6520   62.4170 C.ar    0  <0>0       -0.0027
@<TRIPOS>BOND
     1    16    15    1
     2    13    11    1
     3     2     1    2
     4    12    11   ar
     5    12    14   ar
     6    11     9   ar
     7    15    14    1
     8    15    17    1
     9    14     7   ar
    10     9    10    1
    11     9     8   ar
    12     1     5    1
    13     1     3   am
    14     5     6    1
    15     7     8   ar
    16     7     6    1
    17    21    20   ar
    18    18     3    1
    19    18    19    1
    20    18    23    1
    21     3     4    1
    22    20    19    1
    23    20    22   ar
    24    23    24   ar
    25    23    28   ar
    26    24    25   ar
    27    28    27   ar
    28    25    26   ar
    29    27    26   ar
