@<TRIPOS>MOLECULE
ZINC05275915_replica-1.pdb
 25 28 0 0 0
SMALL
GASTEIGER

@<TRIPOS>ATOM
      1  C1         1.0450   35.8900   56.8310 C.3     0  <0>0        0.0073
      2  C2         2.4750   35.4010   57.0710 C.3     0  <0>0        0.0515
      3  C3         3.3740   36.0330   56.0320 C.3     0  <0>0        0.0069
      4  C4         4.8420   35.7040   56.2990 C.3     0  <0>0        0.0007
      5  C5         5.2140   36.2350   57.6890 C.3     0  <0>0        0.0038
      6  C6         4.3740   35.5060   58.7310 C.3     0  <0>0        0.0050
      7  C7         2.8830   35.7530   58.5120 C.3     0  <0>0        0.0073
      8  C8         2.1220   34.6580   59.3190 C.3     0  <0>0        0.0082
      9  C9         2.2530   33.4020   58.4300 C.3     0  <0>0        0.0645
     10  C10        2.4870   33.8930   57.0120 C.2     0  <0>0        0.1498
     11  O1         2.6500   33.2090   56.0310 O.2     0  <0>0       -0.2961
     12  C11        4.6690   34.0040   58.6270 C.3     0  <0>0        0.0254
     13  C12        6.1400   33.7990   58.8620 C.2     0  <0>0       -0.0345
     14  C13        7.0240   34.7060   58.5660 C.2     0  <0>0       -0.0455
     15  C14        6.6950   36.0280   57.9360 C.3     0  <0>0        0.0151
     16  C15        7.2690   37.1520   58.8010 C.3     0  <0>0        0.0074
     17  C16        8.7700   36.9200   58.9930 C.3     0  <0>0        0.0443
     18  C17        9.0040   35.6050   59.7360 C.3     0  <0>0        0.1729
     19  C18        8.4840   34.4350   58.8950 C.3     0  <0>0        0.0653
     20  C21        7.4070   36.0720   56.5830 C.3     0  <0>0        0.0040
     21  O2        10.4270   35.4320   59.9750 O.3     0  <0>0       -0.4511
     22  C19       10.8300   35.4010   61.2540 C.2     0  <0>0        0.3337
     23  O3        10.7900   36.4050   61.9240 O.2     0  <0>0       -0.2487
     24  C20       11.3320   34.1140   61.8540 C.3     0  <0>0        0.2038
     25 Cl         13.1230   34.1990   62.0450 Cl      0  <0>0       -0.1011
@<TRIPOS>BOND
     1    11    10    2
     2     3     4    1
     3     3     2    1
     4     4     5    1
     5    20    15    1
     6     1     2    1
     7    10     2    1
     8    10     9    1
     9     2     7    1
    10     5    15    1
    11     5     6    1
    12    15    14    1
    13    15    16    1
    14     9     8    1
    15     7     6    1
    16     7     8    1
    17    14    13    2
    18    14    19    1
    19    12     6    1
    20    12    13    1
    21    16    17    1
    22    19    18    1
    23    17    18    1
    24    18    21    1
    25    21    22    1
    26    22    24    1
    27    22    23    2
    28    24    25    1
