@<TRIPOS>MOLECULE
ZINC32116448_replica-1.pdb
 33 36 0 0 0
SMALL
GASTEIGER

@<TRIPOS>ATOM
      1  C13        6.0100   34.2420   59.2410 C.2     0  <0>0        0.0350
      2  C14        6.4180   35.5740   59.2340 C.2     0  <0>0        0.0139
      3  C15        7.6420   35.9320   59.7570 C.2     0  <0>0        0.0409
      4  C16        8.4770   34.9640   60.2950 C.2     0  <0>0        0.1738
      5  C17        8.0730   33.6200   60.3060 C.2     0  <0>0        0.1525
      6  C18        6.8290   33.2650   59.7800 C.3     0  <0>0        0.1034
      7  N2         9.0790   32.9150   60.8850 N.2     0  <0>0       -0.3684
      8  C19       10.0390   33.7440   61.2130 C.2     0  <0>0        0.2818
      9  O2         9.7020   35.0000   60.8670 O.2     0  <0>0       -0.4251
     10  N1         4.7650   33.8910   58.7080 N.am    0  <0>0       -0.2835
     11  C12        4.6890   33.3540   57.4740 C.2     0  <0>0        0.2494
     12  O1         5.6900   33.2520   56.7910 O.2     0  <0>0       -0.2698
     13  H14        3.9570   34.0340   59.2250 H       0  <0>0        0.1549
     14  C11        3.3990   32.8930   56.9540 C.2     0  <0>0        0.0580
     15  C10        2.6030   32.1180   57.7160 C.2     0  <0>0        0.0047
     16  C7         1.3070   31.6540   57.1930 C.ar    0  <0>0        0.0001
     17  C6         0.4320   30.9420   58.0170 C.ar    0  <0>0       -0.0003
     18  C5        -0.7810   30.5120   57.5190 C.ar    0  <0>0       -0.0043
     19  C4        -1.1320   30.7850   56.2090 C.ar    0  <0>0       -0.0225
     20  C9        -0.2670   31.4850   55.3850 C.ar    0  <0>0       -0.0043
     21  C8         0.9460   31.9260   55.8700 C.ar    0  <0>0       -0.0003
     22  C2        -2.4590   30.3120   55.6740 C.3     0  <0>0        0.0224
     23  C1        -2.3640   30.1370   54.1580 C.3     0  <0>0        0.0047
     24  C3        -2.8210   28.9730   56.3200 C.3     0  <0>0        0.0047
     25  C20       11.3050   33.3570   61.8670 C.ar    0  <0>0        0.0671
     26  C25       11.3770   32.1770   62.6100 C.ar    0  <0>0        0.0155
     27  C24       12.5630   31.8170   63.2150 C.ar    0  <0>0        0.0684
     28  C23       13.6810   32.6330   63.0960 C.ar    0  <0>0        0.1398
     29 Br         12.6640   30.2150   64.2150 Br      0  <0>0       -0.0459
     30  C22       13.6120   33.8110   62.3620 C.ar    0  <0>0        0.0373
     31  C21       12.4330   34.1740   61.7510 C.ar    0  <0>0        0.0089
     32  O3        14.8460   32.2780   63.6970 O.3     0  <0>0       -0.5050
     33  H21       15.5040   31.9070   63.0920 H       0  <0>0        0.2922
@<TRIPOS>BOND
     1    23    22    1
     2    20    21   ar
     3    20    19   ar
     4    22    19    1
     5    22    24    1
     6    21    16   ar
     7    19    18   ar
     8    12    11    2
     9    14    11    1
    10    14    15    2
    11    16    15    1
    12    16    17   ar
    13    11    10   am
    14    18    17   ar
    15    10    13    1
    16    10     1    1
    17     2     1    2
    18     2     3    1
    19     1     6    1
    20     3     4    2
    21     6     5    1
    22     4     5    1
    23     4     9    1
    24     5     7    2
    25     9     8    1
    26     7     8    2
    27     8    25    1
    28    31    25   ar
    29    31    30   ar
    30    25    26   ar
    31    30    28   ar
    32    26    27   ar
    33    33    32    1
    34    28    27   ar
    35    28    32    1
    36    27    29    1
