@<TRIPOS>MOLECULE
ZINC62372357_replica-1.pdb
 24 25 0 0 0
SMALL
GASTEIGER

@<TRIPOS>ATOM
      1  C8         7.0610   34.7150   55.9200 C.2     0  <0>0        0.1003
      2  C9         7.0360   35.8720   55.2050 C.3     0  <0>0        0.1188
      3  S1         8.0060   36.9360   56.2650 S.3     0  <0>0       -0.0752
      4  C10        8.3370   35.7280   57.5420 C.2     0  <0>0        0.1565
      5  N3         7.7010   34.6680   57.0650 N.2     0  <0>0       -0.4033
      6  C7         6.3510   33.4920   55.4010 C.3     0  <0>0        0.0766
      7  C6         5.1730   33.9200   54.5240 C.3     0  <0>0        0.0980
      8  N2         3.9150   33.6070   55.2070 N.am    0  <0>0       -0.2885
      9  C5         3.1150   34.6030   55.6340 C.2     0  <0>0        0.3008
     10  N1         1.9570   34.3150   56.2620 N.am    0  <0>0       -0.2890
     11  O1         3.4360   35.7620   55.4530 O.2     0  <0>0       -0.2528
     12  H10        1.7010   33.3920   56.4060 H       0  <0>0        0.1510
     13  H11        3.6590   32.6830   55.3510 H       0  <0>0        0.1510
     14  C4         1.0860   35.3980   56.7260 C.3     0  <0>0        0.0909
     15  C2         0.7370   35.1760   58.1990 C.3     0  <0>0        0.0197
     16  C1         0.3550   33.7110   58.4180 C.3     0  <0>0        0.0018
     17  C3         1.9480   35.5230   59.0680 C.3     0  <0>0        0.0018
     18  C11        9.1100   35.8740   58.7940 C.ar    0  <0>0        0.0356
     19  C16        8.9990   37.0390   59.5550 C.ar    0  <0>0        0.0039
     20  C15        9.7170   37.1680   60.7250 C.ar    0  <0>0        0.0115
     21  C14       10.5570   36.1480   61.1410 C.ar    0  <0>0        0.0577
     22  C13       10.6750   34.9910   60.3870 C.ar    0  <0>0        0.0115
     23 Cl         11.4630   36.3190   62.6110 Cl      0  <0>0       -0.0822
     24  C12        9.9570   34.8490   59.2190 C.ar    0  <0>0        0.0039
@<TRIPOS>BOND
     1     7     8    1
     2     7     6    1
     3     2     1    1
     4     2     3    1
     5     8    13    1
     6     8     9   am
     7     6     1    1
     8    11     9    2
     9     9    10   am
    10     1     5    2
    11    10    12    1
    12    10    14    1
    13     3     4    1
    14    14    15    1
    15     5     4    2
    16     4    18    1
    17    15    16    1
    18    15    17    1
    19    18    24   ar
    20    18    19   ar
    21    24    22   ar
    22    19    20   ar
    23    22    21   ar
    24    20    21   ar
    25    21    23    1
