@<TRIPOS>MOLECULE
ZINC08345467_replica-1.pdb
 32 34 0 0 0
SMALL
GASTEIGER

@<TRIPOS>ATOM
      1  C14        6.7710   37.1600   58.3040 C.2     0  <0>0        0.2260
      2  O2         5.9210   36.8040   59.0920 O.2     0  <0>0       -0.2748
      3  N1         6.6330   36.8790   56.9930 N.am    0  <0>0       -0.3058
      4  H15        7.3130   37.1640   56.3620 H       0  <0>0        0.1494
      5  C2         7.9820   37.9130   58.7900 C.3     0  <0>0        0.0987
      6  C1         8.6730   38.5880   57.6030 C.3     0  <0>0        0.0143
      7  C3         8.9390   36.9550   59.4500 C.ar    0  <0>0       -0.0139
      8  C12        9.5420   37.3090   60.6180 C.ar    0  <0>0       -0.0038
      9  C11       10.4320   36.4160   61.2390 C.ar    0  <0>0       -0.0001
     10  C6        10.6950   35.1620   60.6320 C.ar    0  <0>0        0.0030
     11  C10       11.0700   36.7460   62.4490 C.ar    0  <0>0        0.0031
     12  C5        10.0570   34.8340   59.4230 C.ar    0  <0>0       -0.0002
     13  C7        11.5880   34.2710   61.2500 C.ar    0  <0>0        0.0369
     14  C4         9.1980   35.7220   58.8530 C.ar    0  <0>0       -0.0038
     15  C8        12.1910   34.6230   62.4240 C.ar    0  <0>0        0.1387
     16  C9        11.9300   35.8610   63.0210 C.ar    0  <0>0        0.0369
     17  O1        13.0540   33.7600   63.0200 O.3     0  <0>0       -0.4714
     18  C13       12.6710   32.3830   63.0570 C.3     0  <0>0        0.2525
     19  C15        5.4560   36.1470   56.5190 C.3     0  <0>0        0.0729
     20  C16        5.9040   34.9200   55.7230 C.3     0  <0>0       -0.0149
     21  C17        6.4980   33.9020   56.6620 C.ar    0  <0>0       -0.0397
     22  C22        7.7080   33.3050   56.3570 C.ar    0  <0>0       -0.0031
     23  C21        8.2580   32.3750   57.2180 C.ar    0  <0>0        0.0365
     24  C20        7.5890   32.0330   58.3850 C.ar    0  <0>0        0.1387
     25  C19        6.3740   32.6280   58.6860 C.ar    0  <0>0        0.0365
     26  C18        5.8320   33.5620   57.8240 C.ar    0  <0>0       -0.0031
     27  O3         8.1270   31.1160   59.2320 O.3     0  <0>0       -0.4714
     28  C23        7.2210   30.2210   59.8800 C.3     0  <0>0        0.2525
     29  N2         4.7470   34.3330   55.0340 N.4     0  <0>0        0.3890
     30  C24        3.5140   34.9670   55.5210 C.3     0  <0>0       -0.1001
     31  C25        4.8730   34.5570   53.5880 C.3     0  <0>0       -0.1001
     32  H31        4.7120   33.3420   55.2200 H       0  <0>0       -0.0793
@<TRIPOS>BOND
     1    31    29    1
     2    29    32    1
     3    29    30    1
     4    29    20    1
     5    20    19    1
     6    20    21    1
     7    22    21   ar
     8    22    23   ar
     9     4     3    1
    10    19     3    1
    11    21    26   ar
    12     3     1   am
    13    23    24   ar
    14     6     5    1
    15    26    25   ar
    16     1     5    1
    17     1     2    2
    18    24    25   ar
    19    24    27    1
    20     5     7    1
    21    14    12   ar
    22    14     7   ar
    23    27    28    1
    24    12    10   ar
    25     7     8   ar
    26     8     9   ar
    27    10     9   ar
    28    10    13   ar
    29     9    11   ar
    30    13    15   ar
    31    15    17    1
    32    15    16   ar
    33    11    16   ar
    34    17    18    1
