@<TRIPOS>MOLECULE
ZINC05267961_replica-1.pdb
 26 29 0 0 0
SMALL
GASTEIGER

@<TRIPOS>ATOM
      1  C11        9.4730   36.1200   60.5610 C.2     0  <0>0        0.2172
      2  N2         9.4620   37.0980   59.6880 N.2     0  <0>0       -0.3799
      3  C12        8.5890   37.1440   58.6590 C.ar    0  <0>0        0.1403
      4  C13        8.4690   38.1340   57.6500 C.ar    0  <0>0        0.0353
      5  C14        7.5420   38.0560   56.6720 C.ar    0  <0>0        0.0352
      6  C15        6.6270   36.9780   56.5860 C.ar    0  <0>0        0.1383
      7  C16        6.7400   35.9870   57.5860 C.ar    0  <0>0        0.0696
      8  C17        7.6790   36.0670   58.5780 C.ar    0  <0>0        0.0711
      9  S1         8.1450   35.0760   59.9790 S.3     0  <0>0       -0.0368
     10  S2         5.4510   34.8540   57.1290 S.3     0  <0>0       -0.0566
     11  C18        4.8800   35.7080   55.7290 C.2     0  <0>0        0.1389
     12  N3         5.6530   36.7550   55.6810 N.2     0  <0>0       -0.3992
     13  C19        3.7590   35.3290   54.7950 C.3     0  <0>0        0.0739
     14  N1        10.3020   35.9410   61.6580 N.am    0  <0>0       -0.2539
     15  C10       11.3700   35.1230   61.5700 C.2     0  <0>0        0.2327
     16  O1        11.6050   34.5430   60.5310 O.2     0  <0>0       -0.2743
     17  H12       10.1140   36.4050   62.4880 H       0  <0>0        0.1577
     18  C9        12.2710   34.9280   62.7620 C.3     0  <0>0        0.1114
     19  C5        12.3840   33.4580   63.0710 C.ar    0  <0>0       -0.0170
     20  C4        11.2480   32.6710   63.1110 C.ar    0  <0>0       -0.0044
     21  C3        11.3500   31.3210   63.3930 C.ar    0  <0>0       -0.0046
     22  C2        12.5900   30.7590   63.6370 C.ar    0  <0>0       -0.0222
     23  C1        12.7030   29.2880   63.9450 C.3     0  <0>0        0.0310
     24  C7        13.7250   31.5460   63.5980 C.ar    0  <0>0       -0.0088
     25  C6        13.6230   32.8950   63.3090 C.ar    0  <0>0       -0.0256
     26  C8        14.8620   33.7510   63.2610 C.3     0  <0>0        0.0307
@<TRIPOS>BOND
     1    13    11    1
     2    12    11    2
     3    12     6    2
     4    11    10    1
     5     6     5   ar
     6     6     7   ar
     7     5     4   ar
     8    10     7    1
     9     7     8   ar
    10     4     3   ar
    11     8     3   ar
    12     8     9    1
    13     3     2    2
    14     2     1    2
    15     9     1    1
    16    16    15    2
    17     1    14    1
    18    15    14   am
    19    15    18    1
    20    14    17    1
    21    18    19    1
    22    19    20   ar
    23    19    25   ar
    24    20    21   ar
    25    26    25    1
    26    25    24   ar
    27    21    22   ar
    28    24    22   ar
    29    22    23    1
