@<TRIPOS>MOLECULE
ZINC53433337_replica-1.pdb
 20 21 0 0 0
SMALL
GASTEIGER

@<TRIPOS>ATOM
      1  C8        -0.8220   29.8600   54.0560 C.3     0  <0>0        0.1088
      2  N1        -0.2650   28.5050   54.1020 N.pl3   0  <0>0       -0.3315
      3  H8         0.3390   28.2540   54.8180 H       0  <0>0        0.1469
      4  C7        -0.6060   27.5760   53.1160 C.ar    0  <0>0        0.0406
      5  C2        -0.1850   26.2580   53.2280 C.ar    0  <0>0       -0.0087
      6  C1         0.6390   25.8260   54.4140 C.3     0  <0>0        0.0323
      7  C3        -0.5280   25.3400   52.2540 C.ar    0  <0>0       -0.0030
      8  C4        -1.2840   25.7350   51.1660 C.ar    0  <0>0       -0.0002
      9  C5        -1.7000   27.0490   51.0490 C.ar    0  <0>0        0.0012
     10  C6        -1.3610   27.9710   52.0190 C.ar    0  <0>0        0.0140
     11  C9        -0.0410   30.7660   55.0100 C.3     0  <0>0        0.1120
     12  N2        -0.8950   31.1350   56.1420 N.pl3   0  <0>0       -0.3043
     13  C10       -2.3530   31.0830   56.0060 C.3     0  <0>0        0.1122
     14  C11       -0.3190   31.5360   57.3490 C.ar    0  <0>0        0.0439
     15  C16       -0.0380   30.5960   58.3330 C.ar    0  <0>0       -0.0085
     16  C15        0.5360   30.9960   59.5240 C.ar    0  <0>0       -0.0030
     17  C17       -0.3540   29.1420   58.0990 C.3     0  <0>0        0.0323
     18  C14        0.8210   32.3310   59.7420 C.ar    0  <0>0       -0.0002
     19  C13        0.5370   33.2710   58.7670 C.ar    0  <0>0        0.0012
     20  C12       -0.0320   32.8770   57.5720 C.ar    0  <0>0        0.0142
@<TRIPOS>BOND
     1     9     8   ar
     2     9    10   ar
     3     8     7   ar
     4    10     4   ar
     5     7     5   ar
     6     4     5   ar
     7     4     2    1
     8     5     6    1
     9     1     2    1
    10     1    11    1
    11     2     3    1
    12    11    12    1
    13    13    12    1
    14    12    14    1
    15    14    20   ar
    16    14    15   ar
    17    20    19   ar
    18    17    15    1
    19    15    16   ar
    20    19    18   ar
    21    16    18   ar
