@<TRIPOS>MOLECULE
ZINC04831458_replica-1.pdb
 24 27 0 0 0
SMALL
GASTEIGER

@<TRIPOS>ATOM
      1  C1         7.2900   34.6230   56.5260 C.3     0  <0>0        0.0000
      2  C2         6.3960   35.5520   57.3510 C.3     0  <0>0        0.0008
      3  C3         7.1320   35.9600   58.6230 C.3     0  <0>0        0.0078
      4  C4         8.4460   36.6610   58.2570 C.3     0  <0>0        0.0645
      5  C5         8.1960   37.7550   57.2480 C.2     0  <0>0        0.1506
      6  O1         8.6850   38.8500   57.4010 O.2     0  <0>0       -0.2961
      7  C6         7.3230   37.4740   56.0400 C.3     0  <0>0        0.0645
      8  C7         6.0490   36.8050   56.5440 C.3     0  <0>0        0.0073
      9  C8         5.0750   36.4700   55.4240 C.3     0  <0>0        0.0004
     10  C9         3.7090   36.1340   56.0490 C.3     0  <0>0        0.0000
     11  C10        3.9190   35.7570   57.5110 C.3     0  <0>0        0.0000
     12  C11        5.1010   34.7970   57.6460 C.3     0  <0>0        0.0000
     13  C12        5.1040   34.1630   59.0290 C.3     0  <0>0        0.0000
     14  C13        3.8930   33.2350   59.2130 C.3     0  <0>0        0.0005
     15  C14        2.7330   33.6810   58.3650 C.3     0  <0>0        0.0101
     16  C15        2.6990   35.2110   58.1930 C.3     0  <0>0        0.0005
     17  C16        1.3590   35.4300   57.4760 C.3     0  <0>0        0.0006
     18  C17        0.4190   34.3770   58.1210 C.3     0  <0>0        0.0111
     19  C18        1.3260   33.4130   58.9310 C.3     0  <0>0        0.0990
     20  C21        2.7800   32.9650   57.0030 C.3     0  <0>0        0.0005
     21  C19        1.2310   33.7300   60.3950 C.2     0  <0>0        0.3165
     22  O2         1.9100   33.1240   61.1900 O.2     0  <0>0       -0.2501
     23  O3         0.3880   34.6840   60.8220 O.3     0  <0>0       -0.4444
     24  C20       -0.4780   34.3470   61.9370 C.3     0  <0>0        0.2556
@<TRIPOS>BOND
     1     9    10    1
     2     9     8    1
     3     7     8    1
     4     7     5    1
     5    10    11    1
     6     1     2    1
     7     8     2    1
     8    20    15    1
     9     5     6    2
    10     5     4    1
    11     2    12    1
    12     2     3    1
    13    17    18    1
    14    17    16    1
    15    11    12    1
    16    11    16    1
    17    12    13    1
    18    18    19    1
    19    16    15    1
    20     4     3    1
    21    15    19    1
    22    15    14    1
    23    19    21    1
    24    13    14    1
    25    21    23    1
    26    21    22    2
    27    23    24    1
