@<TRIPOS>MOLECULE
ZINC41392205_replica-1.pdb
 21 22 0 0 0
SMALL
GASTEIGER

@<TRIPOS>ATOM
      1  C6        11.8740   35.1730   62.4560 C.3     0  <0>0        0.0327
      2  C5        13.0470   34.4350   61.8070 C.3     0  <0>0        0.0524
      3  C4        13.4050   33.2290   62.6370 C.ar    0  <0>0        0.0829
      4  C3        12.4980   32.2640   63.1360 C.ar    0  <0>0        0.0703
      5  C2        13.2420   31.3340   63.8420 C.ar    0  <0>0        0.0563
      6  C1        12.7070   30.1190   64.5550 C.3     0  <0>0        0.0516
      7  N2        14.5250   31.7170   63.7790 N.ar    0  <0>0       -0.2800
      8  N1        14.6040   32.8910   63.0220 N.ar    0  <0>0       -0.1772
      9  H1        15.2760   31.2560   64.1870 H       0  <0>0        0.1886
     10  C17       11.0440   32.2520   62.9420 C.2     0  <0>0        0.2365
     11  O1        10.5770   31.9310   61.8700 O.2     0  <0>0       -0.2831
     12  C7        10.9210   35.6390   61.3870 C.ar    0  <0>0       -0.0218
     13  C12       10.7270   34.8740   60.2520 C.ar    0  <0>0       -0.0046
     14  C11        9.8480   35.3000   59.2730 C.ar    0  <0>0       -0.0046
     15  C10        9.1720   36.4960   59.4250 C.ar    0  <0>0       -0.0228
     16  C9         9.3700   37.2640   60.5570 C.ar    0  <0>0       -0.0046
     17  C8        10.2450   36.8360   61.5370 C.ar    0  <0>0       -0.0046
     18  C13        8.2170   36.9620   58.3550 C.3     0  <0>0        0.0189
     19  C14        8.3740   36.0820   57.1130 C.3     0  <0>0        0.0044
     20  C15        6.7820   36.8620   58.8740 C.3     0  <0>0        0.0044
     21  C16        8.5280   38.4160   57.9930 C.3     0  <0>0        0.0044
@<TRIPOS>BOND
     1    19    18    1
     2    21    18    1
     3    18    20    1
     4    18    15    1
     5    14    15   ar
     6    14    13   ar
     7    15    16   ar
     8    13    12   ar
     9    16    17   ar
    10    12    17   ar
    11    12     1    1
    12     2     1    1
    13     2     3    1
    14    11    10    2
    15     3     8   ar
    16     3     4   ar
    17    10     4    1
    18     8     7   ar
    19     4     5   ar
    20     7     5   ar
    21     7     9    1
    22     5     6    1
