@<TRIPOS>MOLECULE
ZINC09445089_replica-1.pdb
 28 30 0 0 0
SMALL
GASTEIGER

@<TRIPOS>ATOM
      1  C9         4.1710   34.7990   56.5390 C.2     0  <0>0        0.0754
      2  C10        5.1460   35.1820   55.6670 C.2     0  <0>0        0.1184
      3  C11        5.0420   34.8380   54.2810 C.1     0  <0>0        0.1048
      4  N2         4.9600   34.5650   53.1820 N.1     0  <0>0       -0.1907
      5  C12        6.3080   35.9520   56.1520 C.2     0  <0>0        0.1678
      6  S1         7.0640   37.4150   55.4580 S.3     0  <0>0       -0.0741
      7  C14        8.3480   37.6070   56.6870 C.3     0  <0>0        0.1234
      8  C13        8.0830   36.5390   57.5020 C.2     0  <0>0        0.1217
      9  N3         7.0710   35.7390   57.2140 N.2     0  <0>0       -0.3984
     10  C15        8.9240   36.2820   58.6960 C.ar    0  <0>0        0.0369
     11  C20        8.9110   37.1770   59.7660 C.ar    0  <0>0        0.0607
     12  C19        9.6920   36.9300   60.8780 C.ar    0  <0>0        0.0229
     13 Cl          7.9090   38.5930   59.7040 Cl      0  <0>0       -0.0821
     14  C18       10.4960   35.8030   60.9260 C.ar    0  <0>0        0.0585
     15  C17       10.5160   34.9160   59.8630 C.ar    0  <0>0        0.0115
     16 Cl         11.4810   35.5020   62.3240 Cl      0  <0>0       -0.0822
     17  C16        9.7350   35.1490   58.7500 C.ar    0  <0>0        0.0039
     18  N1         4.2100   35.2230   57.8390 N.pl3   0  <0>0       -0.3109
     19  H8         4.9190   35.8160   58.1340 H       0  <0>0        0.1523
     20  C6         3.2350   34.8050   58.7360 C.ar    0  <0>0        0.0484
     21  C5         3.5080   33.7680   59.6260 C.ar    0  <0>0        0.0147
     22  C4         2.5530   33.3550   60.5100 C.ar    0  <0>0        0.0041
     23  C3         1.2950   33.9750   60.5200 C.ar    0  <0>0        0.0348
     24  C8         1.0230   35.0120   59.6190 C.ar    0  <0>0        0.0041
     25  C7         1.9870   35.4240   58.7430 C.ar    0  <0>0        0.0147
     26  C2         0.2650   33.5330   61.4690 C.2     0  <0>0        0.1735
     27  C1         0.3040   32.1340   62.0260 C.3     0  <0>0        0.0773
     28  O1        -0.6170   34.2960   61.8040 O.2     0  <0>0       -0.2913
@<TRIPOS>BOND
     1     4     3    3
     2     3     2    1
     3     6     5    1
     4     6     7    1
     5     2     5    1
     6     2     1    2
     7     5     9    2
     8     1    18    1
     9     7     8    1
    10     9     8    2
    11     8    10    1
    12    18    19    1
    13    18    20    1
    14    10    17   ar
    15    10    11   ar
    16    20    25   ar
    17    20    21   ar
    18    25    24   ar
    19    17    15   ar
    20    24    23   ar
    21    21    22   ar
    22    13    11    1
    23    11    12   ar
    24    15    14   ar
    25    22    23   ar
    26    23    26    1
    27    12    14   ar
    28    14    16    1
    29    26    28    2
    30    26    27    1
