@<TRIPOS>MOLECULE
ZINC49181512_replica-1.pdb
 22 22 0 0 0
SMALL
GASTEIGER

@<TRIPOS>ATOM
      1  C10        9.2720   35.9140   59.1320 C.ar    0  <0>0        0.0091
      2  C11        9.1420   37.3000   59.1220 C.ar    0  <0>0        0.0366
      3  C12        8.4040   37.9220   58.1250 C.ar    0  <0>0        0.1325
      4  C13        7.7890   37.1720   57.1290 C.ar    0  <0>0        0.0456
      5  C14        7.9040   35.7950   57.1180 C.ar    0  <0>0        0.1356
      6  C15        8.6530   35.1450   58.1170 C.ar    0  <0>0        0.0757
      7  C17        6.9910   37.8660   56.0560 C.3     0  <0>0        0.0374
      8  C9        10.0530   35.2520   60.1860 C.2     0  <0>0       -0.0000
      9  C8        10.7000   35.9910   61.1100 C.2     0  <0>0       -0.0046
     10  C6        11.4790   35.3310   62.1610 C.2     0  <0>0       -0.0261
     11  C5        11.8240   34.0510   62.0300 C.2     0  <0>0       -0.0307
     12  C7        11.8880   36.1000   63.3900 C.3     0  <0>0        0.0307
     13  C3        12.7360   33.4090   63.0450 C.3     0  <0>0        0.0217
     14  C4        12.3880   31.9260   63.1770 C.3     0  <0>0        0.0047
     15  C2        14.1890   33.5540   62.5880 C.3     0  <0>0        0.0043
     16  C1        15.0990   33.6680   63.8130 C.3     0  <0>0        0.0003
     17  C16        8.7790   33.7340   58.1100 C.2     0  <0>0        0.2372
     18  O1         7.7880   33.0340   58.1500 O.2     0  <0>0       -0.2830
     19  O2         7.3010   35.0700   56.1430 O.3     0  <0>0       -0.5056
     20  H18        7.3610   35.4680   55.2630 H       0  <0>0        0.2922
     21  O3         8.2820   39.2730   58.1220 O.3     0  <0>0       -0.5057
     22  H22        7.7580   39.6230   58.8560 H       0  <0>0        0.2922
@<TRIPOS>BOND
     1    20    19    1
     2     7     4    1
     3    19     5    1
     4     5     4   ar
     5     5     6   ar
     6     4     3   ar
     7    17     6    1
     8    17    18    2
     9     6     1   ar
    10    21     3    1
    11    21    22    1
    12     3     2   ar
    13     2     1   ar
    14     1     8    1
    15     8     9    2
    16     9    10    1
    17    11    10    2
    18    11    13    1
    19    10    12    1
    20    15    13    1
    21    15    16    1
    22    13    14    1
