@<TRIPOS>MOLECULE
ZINC12920953_replica-1.pdb
 28 30 0 0 0
SMALL
GASTEIGER

@<TRIPOS>ATOM
      1  N1         0.8920   30.6370   55.3930 N.am    0  <0>0       -0.3006
      2  C5         0.9410   31.6840   56.2410 C.2     0  <0>0        0.2714
      3  O1         0.1150   32.5660   56.1640 O.2     0  <0>0       -0.2706
      4  H9         1.5540   29.9300   55.4540 H       0  <0>0        0.1496
      5  C6         2.0270   31.7560   57.2840 C.3     0  <0>0        0.3020
      6  N2         1.4210   31.8700   58.6120 N.am    0  <0>0       -0.1056
      7  C8         1.4420   32.9570   59.4390 C.1     0  <0>0        0.1801
      8  N4         0.7800   32.6320   60.5270 N.2     0  <0>0        0.0474
      9  S1         2.2090   34.5080   59.1070 S.2     0  <0>0        0.0561
     10  N3         0.3570   31.4210   60.4410 N.2     0  <0>0        0.0925
     11  C7         0.7190   30.9010   59.2910 C.2     0  <0>0        0.3643
     12  C9         0.4250   29.5330   58.8150 C.ar    0  <0>0        0.0857
     13  C14        1.4570   28.6020   58.6780 C.ar    0  <0>0        0.0072
     14  C13        1.1750   27.3250   58.2380 C.ar    0  <0>0       -0.0040
     15  C12       -0.1240   26.9690   57.9230 C.ar    0  <0>0       -0.0218
     16  C11       -1.1500   27.8890   58.0510 C.ar    0  <0>0       -0.0040
     17  C15       -0.4240   25.5740   57.4390 C.3     0  <0>0        0.0310
     18  C10       -0.8830   29.1670   58.4950 C.ar    0  <0>0        0.0072
     19  C4        -0.1640   30.5670   54.3780 C.3     0  <0>0        0.0938
     20  C3        -1.1340   29.4370   54.7300 C.3     0  <0>0        0.0419
     21  C2        -2.5720   29.9370   54.5920 C.3     0  <0>0        0.0061
     22  C1        -2.9270   30.8090   55.7980 C.3     0  <0>0        0.0004
     23  C16       -0.9130   28.2770   53.7930 C.ar    0  <0>0       -0.0208
     24  C21       -0.1650   27.1900   54.2030 C.ar    0  <0>0       -0.0042
     25  C20        0.0330   26.1240   53.3450 C.ar    0  <0>0       -0.0003
     26  C19       -0.5090   26.1500   52.0740 C.ar    0  <0>0       -0.0000
     27  C18       -1.2530   27.2390   51.6620 C.ar    0  <0>0       -0.0003
     28  C17       -1.4560   28.3040   52.5220 C.ar    0  <0>0       -0.0042
@<TRIPOS>BOND
     1    27    26   ar
     2    27    28   ar
     3    26    25   ar
     4    28    23   ar
     5    25    24   ar
     6    23    24   ar
     7    23    20    1
     8    19    20    1
     9    19     1    1
    10    21    20    1
    11    21    22    1
    12     1     4    1
    13     1     2   am
    14     3     2    2
    15     2     5    1
    16     5     6    1
    17    17    15    1
    18    15    16   ar
    19    15    14   ar
    20    16    18   ar
    21    14    13   ar
    22    18    12   ar
    23     6    11    1
    24     6     7    1
    25    13    12   ar
    26    12    11    1
    27     9     7    2
    28    11    10    2
    29     7     8    2
    30    10     8    1
