@<TRIPOS>MOLECULE
ZINC35451269_replica-1.pdb
 19 20 0 0 0
SMALL
GASTEIGER

@<TRIPOS>ATOM
      1  N1        -0.6380   29.5230   54.7650 N.pl3   0  <0>0       -0.3340
      2  H8         0.1880   29.9900   54.9690 H       0  <0>0        0.1468
      3  C5        -0.6150   28.3910   53.9460 C.ar    0  <0>0        0.0468
      4  C4         0.0550   27.2470   54.3580 C.ar    0  <0>0        0.0141
      5  C3         0.0750   26.1290   53.5490 C.ar    0  <0>0       -0.0008
      6  C2        -0.5720   26.1470   52.3270 C.ar    0  <0>0        0.0057
      7  C1        -0.5470   24.9240   51.4450 C.3     0  <0>0        0.0334
      8  C7        -1.2370   27.2870   51.9090 C.ar    0  <0>0        0.1374
      9  C6        -1.2650   28.4080   52.7190 C.ar    0  <0>0        0.0436
     10  F1        -1.8640   27.3030   50.7120 F       0  <0>0       -0.2045
     11  C8        -1.9090   30.0070   55.3120 C.3     0  <0>0        0.0695
     12  C9        -1.6420   31.1650   56.2740 C.3     0  <0>0        0.0212
     13  C10       -2.6050   28.8700   56.0630 C.3     0  <0>0        0.0274
     14  C11       -2.0240   28.7600   57.4750 C.3     0  <0>0        0.0662
     15  C12       -1.9440   27.3090   57.8730 C.ar    0  <0>0        0.1230
     16  O1        -2.9600   26.5660   58.3420 O.2     0  <0>0       -0.4547
     17  C15       -2.5260   25.3190   58.5890 C.ar    0  <0>0        0.1791
     18  C14       -1.2160   25.2570   58.2870 C.ar    0  <0>0        0.0434
     19  C13       -0.8420   26.5400   57.8250 C.ar    0  <0>0        0.0362
@<TRIPOS>BOND
     1    10     8    1
     2     7     6    1
     3     8     6   ar
     4     8     9   ar
     5     6     5   ar
     6     9     3   ar
     7     5     4   ar
     8     3     4   ar
     9     3     1    1
    10     1     2    1
    11     1    11    1
    12    11    13    1
    13    11    12    1
    14    13    14    1
    15    14    15    1
    16    19    15   ar
    17    19    18   ar
    18    15    16   ar
    19    18    17   ar
    20    16    17   ar
