@<TRIPOS>MOLECULE
ZINC00222269_replica-1.pdb
 24 27 0 0 0
SMALL
GASTEIGER

@<TRIPOS>ATOM
      1  C7         5.1730   35.8500   57.9580 C.3     0  <0>0        0.1322
      2  C8         6.2720   35.7740   59.0250 C.3     0  <0>0        0.0531
      3  C9         7.6450   35.9440   58.3660 C.3     0  <0>0        0.0965
      4  N1         7.8570   34.8290   57.4230 N.pl3   0  <0>0       -0.3010
      5  C10        6.7750   34.4920   56.6190 C.ar    0  <0>0        0.2158
      6  N2         5.5250   34.9610   56.8510 N.ar    0  <0>0       -0.2185
      7  N3         4.7060   34.4290   55.8540 N.ar    0  <0>0       -0.1440
      8  C11        5.4720   33.6890   55.0920 C.ar    0  <0>0        0.2220
      9  N4         6.7300   33.7260   55.5620 N.ar    0  <0>0       -0.1903
     10  H9         8.7020   34.3570   57.3680 H       0  <0>0        0.1499
     11  C6         3.8580   35.4170   58.5550 C.ar    0  <0>0        0.0002
     12  C1         3.8220   34.3770   59.4650 C.ar    0  <0>0       -0.0001
     13  C2         2.6170   33.9790   60.0130 C.ar    0  <0>0        0.0294
     14  C3         1.4450   34.6240   59.6500 C.ar    0  <0>0        0.1401
     15  C4         1.4840   35.6650   58.7390 C.ar    0  <0>0        0.0294
     16  F1         0.2670   34.2360   60.1850 F       0  <0>0       -0.2042
     17  C5         2.6900   36.0610   58.1930 C.ar    0  <0>0       -0.0001
     18  C12        8.7190   35.9270   59.4240 C.ar    0  <0>0       -0.0044
     19  C17        8.7130   36.8760   60.4290 C.ar    0  <0>0       -0.0018
     20  C16        9.6940   36.8580   61.4030 C.ar    0  <0>0        0.0111
     21  C15       10.6880   35.8970   61.3640 C.ar    0  <0>0        0.0577
     22  C14       10.6980   34.9510   60.3540 C.ar    0  <0>0        0.0111
     23 Cl         11.9250   35.8780   62.5820 Cl      0  <0>0       -0.0822
     24  C13        9.7120   34.9670   59.3840 C.ar    0  <0>0       -0.0018
@<TRIPOS>BOND
     1     8     9   ar
     2     8     7   ar
     3     9     5   ar
     4     7     6   ar
     5     5     6   ar
     6     5     4    1
     7     6     1    1
     8    10     4    1
     9     4     3    1
    10     1    11    1
    11     1     2    1
    12    17    11   ar
    13    17    15   ar
    14     3     2    1
    15     3    18    1
    16    11    12   ar
    17    15    14   ar
    18    24    18   ar
    19    24    22   ar
    20    18    19   ar
    21    12    13   ar
    22    14    13   ar
    23    14    16    1
    24    22    21   ar
    25    19    20   ar
    26    21    20   ar
    27    21    23    1
