@<TRIPOS>MOLECULE
ZINC12769981_replica-1.pdb
 27 29 0 0 0
SMALL
GASTEIGER

@<TRIPOS>ATOM
      1  N1        -0.4580   29.9040   55.1410 N.am    0  <0>0       -0.2968
      2  C12        0.1530   30.7950   55.9460 C.2     0  <0>0        0.2429
      3  O1         0.9410   30.4140   56.7860 O.2     0  <0>0       -0.2732
      4  H10       -1.0880   30.2100   54.4690 H       0  <0>0        0.1500
      5  C7        -0.1700   28.4740   55.2790 C.3     0  <0>0        0.1230
      6  C4        -0.4640   27.7750   53.9770 C.ar    0  <0>0        0.0002
      7  C3        -1.1910   28.4190   52.9940 C.ar    0  <0>0       -0.0023
      8  C2        -1.4610   27.7770   51.8010 C.ar    0  <0>0       -0.0003
      9  C1        -1.0040   26.4900   51.5890 C.ar    0  <0>0       -0.0000
     10  C6        -0.2770   25.8440   52.5730 C.ar    0  <0>0       -0.0003
     11  C5        -0.0030   26.4890   53.7650 C.ar    0  <0>0       -0.0023
     12  C8        -1.0310   27.8920   56.3690 C.ar    0  <0>0        0.0292
     13  S1        -0.6690   26.5530   57.4930 S.2     0  <0>0       -0.0888
     14  C11       -2.2090   26.5600   58.3960 C.ar    0  <0>0        0.0352
     15  C10       -2.8870   27.5630   57.7880 C.ar    0  <0>0        0.0072
     16  C9        -2.2810   28.2490   56.7520 C.ar    0  <0>0        0.0046
     17  C13       -0.1440   32.2660   55.8050 C.3     0  <0>0        0.1737
     18  N2        -0.3310   32.8570   57.1330 N.pl3   0  <0>0       -0.3235
     19  H13       -1.0770   32.5790   57.6860 H       0  <0>0        0.1473
     20  C14        0.5680   33.8230   57.6020 C.ar    0  <0>0        0.0729
     21  C19        0.6870   34.0580   58.9680 C.ar    0  <0>0        0.1553
     22  C18        1.5780   35.0090   59.4280 C.ar    0  <0>0        0.0605
     23  F1        -0.0630   33.3520   59.8430 F       0  <0>0       -0.2028
     24  C17        2.3430   35.7340   58.5310 C.ar    0  <0>0        0.1425
     25  C16        2.2220   35.5040   57.1710 C.ar    0  <0>0        0.0310
     26  F2         3.2110   36.6660   58.9820 F       0  <0>0       -0.2041
     27  C15        1.3360   34.5520   56.7060 C.ar    0  <0>0        0.0189
@<TRIPOS>BOND
     1     9     8   ar
     2     9    10   ar
     3     8     7   ar
     4    10    11   ar
     5     7     6   ar
     6    11     6   ar
     7     6     5    1
     8     4     1    1
     9     1     5    1
    10     1     2   am
    11     5    12    1
    12    17     2    1
    13    17    18    1
    14     2     3    2
    15    12    16   ar
    16    12    13   ar
    17    27    25   ar
    18    27    20   ar
    19    16    15   ar
    20    18    20    1
    21    18    19    1
    22    25    24   ar
    23    13    14   ar
    24    20    21   ar
    25    15    14   ar
    26    24    26    1
    27    24    22   ar
    28    21    22   ar
    29    21    23    1
