@<TRIPOS>MOLECULE
ZINC02611443_replica-1.pdb
 24 26 0 0 0
SMALL
GASTEIGER

@<TRIPOS>ATOM
      1  C1        -1.9050   27.6660   58.3780 C.3     0  <0>0        0.0757
      2  C2        -1.1070   28.9180   58.1210 C.ar    0  <0>0        0.1647
      3  N1        -0.6140   29.7200   59.0220 N.ar    0  <0>0       -0.1310
      4  N2         0.0130   30.6900   58.4580 N.ar    0  <0>0       -0.1206
      5  C3        -0.0410   30.5580   57.1520 C.ar    0  <0>0        0.2131
      6  N3        -0.7630   29.4230   56.8940 N.ar    0  <0>0       -0.1900
      7  S1         0.6770   31.6360   55.9580 S.3     0  <0>0       -0.0692
      8  C11        0.6290   33.1960   56.8760 C.3     0  <0>0        0.0914
      9  C12        1.9020   33.9630   56.6280 C.ar    0  <0>0       -0.0109
     10  C17        1.9290   35.3340   56.8100 C.ar    0  <0>0       -0.0029
     11  C16        3.0960   36.0380   56.5840 C.ar    0  <0>0        0.0064
     12  C15        4.2380   35.3720   56.1760 C.ar    0  <0>0        0.0345
     13  C14        4.2100   34.0020   55.9940 C.ar    0  <0>0        0.0064
     14 Br          5.8350   36.3360   55.8650 Br      0  <0>0       -0.0490
     15  C13        3.0440   33.2970   56.2250 C.ar    0  <0>0       -0.0029
     16  N4        -1.0800   28.8880   55.6390 N.2     0  <0>0       -0.1606
     17  C4        -0.2290   28.1220   55.0280 C.2     0  <0>0        0.1214
     18  C5        -0.5620   27.5580   53.7060 C.ar    0  <0>0        0.0315
     19  C10       -0.1930   26.2480   53.3890 C.ar    0  <0>0        0.0592
     20  C9        -0.5020   25.7290   52.1460 C.ar    0  <0>0        0.0114
     21 Cl          0.6590   25.2770   54.5500 Cl      0  <0>0       -0.0822
     22  C8        -1.1800   26.5010   51.2220 C.ar    0  <0>0        0.0009
     23  C7        -1.5540   27.7970   51.5320 C.ar    0  <0>0        0.0001
     24  C6        -1.2510   28.3290   52.7680 C.ar    0  <0>0        0.0024
@<TRIPOS>BOND
     1    22    23   ar
     2    22    20   ar
     3    23    24   ar
     4    20    19   ar
     5    24    18   ar
     6    19    18   ar
     7    19    21    1
     8    18    17    1
     9    17    16    2
    10    16     6    1
    11    14    12    1
    12     7     8    1
    13     7     5    1
    14    13    12   ar
    15    13    15   ar
    16    12    11   ar
    17    15     9   ar
    18    11    10   ar
    19     9    10   ar
    20     9     8    1
    21     6     5   ar
    22     6     2   ar
    23     5     4   ar
    24     2     1    1
    25     2     3   ar
    26     4     3   ar
