@<TRIPOS>MOLECULE
ZINC36618878_replica-1.pdb
 29 33 0 0 0
SMALL
GASTEIGER

@<TRIPOS>ATOM
      1  C3         5.3480   32.5870   58.2340 C.2     0  <0>0        0.2204
      2  N1         5.8960   31.9270   59.2460 N.2     0  <0>0       -0.3773
      3  C4         7.0540   32.3730   59.7080 C.2     0  <0>0        0.1527
      4  C5         7.7340   33.5060   59.1900 C.3     0  <0>0        0.1547
      5  C6         8.9540   33.8420   59.7970 C.2     0  <0>0       -0.0224
      6  C7         9.3700   33.0530   60.8410 C.2     0  <0>0        0.0242
      7  S2         8.1160   31.8180   61.0070 S.3     0  <0>0       -0.0596
      8  C8        10.5980   33.2840   61.5970 C.ar    0  <0>0        0.0015
      9  C9        11.1550   32.3350   62.4460 C.ar    0  <0>0        0.0002
     10  C10       12.3370   32.6160   63.1040 C.ar    0  <0>0       -0.0000
     11  C11       12.9610   33.8360   62.9150 C.ar    0  <0>0       -0.0003
     12  C12       12.4050   34.7890   62.0810 C.ar    0  <0>0       -0.0042
     13  C13       11.2180   34.5320   61.4290 C.ar    0  <0>0       -0.0214
     14  C14       10.5630   35.5850   60.5780 C.3     0  <0>0        0.0307
     15  C15        9.8450   35.0020   59.3670 C.3     0  <0>0        0.0281
     16  C16        7.1080   34.1930   58.0950 C.2     0  <0>0        0.2460
     17  O1         7.6100   35.1770   57.5780 O.2     0  <0>0       -0.2733
     18  N2         5.9310   33.6810   57.6690 N.am    0  <0>0       -0.2037
     19  C17        5.2780   34.3090   56.5970 C.ar    0  <0>0        0.0947
     20  C22        4.4160   35.3760   56.8350 C.ar    0  <0>0        0.1527
     21  C21        3.7770   35.9950   55.7720 C.ar    0  <0>0        0.0382
     22  C20        3.9890   35.5470   54.4820 C.ar    0  <0>0        0.0032
     23  C19        4.8410   34.4840   54.2460 C.ar    0  <0>0        0.0015
     24  C18        5.4860   33.8640   55.3000 C.ar    0  <0>0        0.0184
     25  O2         4.2040   35.8120   58.1050 O.3     0  <0>0       -0.4702
     26  C23        2.8450   35.9600   58.5220 C.3     0  <0>0        0.2525
     27  S1         3.8070   32.0220   57.5920 S.3     0  <0>0       -0.0664
     28  C2         2.6390   32.2900   58.9530 C.3     0  <0>0        0.0660
     29  C1         1.2440   32.5570   58.3830 C.3     0  <0>0        0.0130
@<TRIPOS>BOND
     1    23    22   ar
     2    23    24   ar
     3    22    21   ar
     4    24    19   ar
     5    21    20   ar
     6    19    20   ar
     7    19    18    1
     8    20    25    1
     9    17    16    2
    10    27     1    1
    11    27    28    1
    12    18    16   am
    13    18     1    1
    14    16     4    1
    15    25    26    1
    16     1     2    2
    17    29    28    1
    18     4     3    1
    19     4     5    1
    20     2     3    2
    21    15     5    1
    22    15    14    1
    23     3     7    1
    24     5     6    2
    25    14    13    1
    26     6     7    1
    27     6     8    1
    28    13     8   ar
    29    13    12   ar
    30     8     9   ar
    31    12    11   ar
    32     9    10   ar
    33    11    10   ar
