@<TRIPOS>MOLECULE
ZINC37785356_replica-1.pdb
 21 22 0 0 0
SMALL
GASTEIGER

@<TRIPOS>ATOM
      1  C10        8.5860   36.6190   59.0160 C.3     0  <0>0        0.0920
      2  C11        8.5620   38.1480   58.9810 C.3     0  <0>0        0.0261
      3  C7         9.5990   36.1540   60.0320 C.ar    0  <0>0       -0.0046
      4  C6         9.8840   36.9390   61.1330 C.ar    0  <0>0       -0.0030
      5  C5        10.8120   36.5130   62.0640 C.ar    0  <0>0       -0.0045
      6  C4        11.4550   35.3010   61.8940 C.ar    0  <0>0       -0.0222
      7  C9        11.1740   34.5180   60.7910 C.ar    0  <0>0       -0.0045
      8  C8        10.2420   34.9430   59.8620 C.ar    0  <0>0       -0.0030
      9  C3        12.4670   34.8370   62.9100 C.3     0  <0>0        0.0264
     10  C2        13.5750   34.0530   62.2040 C.3     0  <0>0        0.0047
     11  C1        13.8910   32.7870   63.0030 C.3     0  <0>0        0.0004
     12  N1         8.9510   36.1050   57.6940 N.pl3   0  <0>0       -0.3294
     13  H16        9.8650   36.1840   57.3780 H       0  <0>0        0.1471
     14  C12        7.9790   35.5000   56.8830 C.ar    0  <0>0        0.0625
     15  C16        7.5750   34.2280   57.1370 C.ar    0  <0>0        0.0928
     16  N2         6.6290   33.6340   56.3610 N.ar    0  <0>0       -0.2911
     17  C15        6.0820   34.2890   55.3190 C.ar    0  <0>0        0.2611
     18  C17        6.2040   32.2630   56.6580 C.3     0  <0>0        0.1336
     19  C14        6.4810   35.6030   55.0230 C.ar    0  <0>0        0.0621
     20  O1         5.2380   33.7390   54.6300 O.2     0  <0>0       -0.2670
     21  C13        7.4240   36.2070   55.8000 C.ar    0  <0>0        0.0207
@<TRIPOS>BOND
     1    20    17    2
     2    19    17   ar
     3    19    21   ar
     4    17    16   ar
     5    21    14   ar
     6    16    18    1
     7    16    15   ar
     8    14    15   ar
     9    14    12    1
    10    13    12    1
    11    12     1    1
    12     2     1    1
    13     1     3    1
    14     8     3   ar
    15     8     7   ar
    16     3     4   ar
    17     7     6   ar
    18     4     5   ar
    19     6     5   ar
    20     6     9    1
    21    10     9    1
    22    10    11    1
