@<TRIPOS>MOLECULE
ZINC62772125_replica-1.pdb
 20 21 0 0 0
SMALL
GASTEIGER

@<TRIPOS>ATOM
      1  C4        11.3560   35.2260   61.7830 C.ar    0  <0>0        0.1386
      2  C5        11.0880   34.4850   60.6410 C.ar    0  <0>0        0.0382
      3  C6        10.2440   34.9920   59.6730 C.ar    0  <0>0        0.0174
      4  C7         9.6630   36.2410   59.8420 C.ar    0  <0>0        0.0448
      5  C8         9.9330   36.9820   60.9850 C.ar    0  <0>0        0.0174
      6  C9        10.7730   36.4720   61.9560 C.ar    0  <0>0        0.0382
      7  N1         8.8080   36.7550   58.8600 N.pl3   0  <0>0       -0.3336
      8  H13        8.4020   36.1600   58.2120 H       0  <0>0        0.1468
      9  C10        8.5280   38.1920   58.8130 C.3     0  <0>0        0.0766
     10  C11        8.6150   38.6810   57.3650 C.3     0  <0>0        0.0216
     11  C12        7.1220   38.4560   59.3550 C.3     0  <0>0        0.0839
     12  C13        6.3500   37.1620   59.4010 C.ar    0  <0>0        0.1247
     13  O2         5.9570   36.4440   58.3370 O.2     0  <0>0       -0.4546
     14  C16        5.2970   35.3510   58.7530 C.ar    0  <0>0        0.1791
     15  C15        5.2540   35.3660   60.0970 C.ar    0  <0>0        0.0434
     16  C14        5.9330   36.5350   60.5150 C.ar    0  <0>0        0.0362
     17  O1        12.1870   34.7270   62.7380 O.3     0  <0>0       -0.4755
     18  C3        12.0820   33.3300   63.0220 C.3     0  <0>0        0.2054
     19  C2        13.4790   32.7040   63.0220 C.3     0  <0>0        0.0473
     20  C1        13.4080   31.2970   63.6180 C.3     0  <0>0        0.0040
@<TRIPOS>BOND
     1    10     9    1
     2     8     7    1
     3    13    14   ar
     4    13    12   ar
     5    14    15   ar
     6     9     7    1
     7     9    11    1
     8     7     4    1
     9    11    12    1
    10    12    16   ar
    11     3     4   ar
    12     3     2   ar
    13     4     5   ar
    14    15    16   ar
    15     2     1   ar
    16     5     6   ar
    17     1     6   ar
    18     1    17    1
    19    17    18    1
    20    18    19    1
    21    19    20    1
