@<TRIPOS>MOLECULE
ZINC43539638_replica-1.pdb
 16 16 0 0 0
SMALL
GASTEIGER

@<TRIPOS>ATOM
      1  C3        -1.6500   29.8220   56.5480 C.3     0  <0>0        0.1620
      2  C4        -1.1000   29.7030   57.9090 C.1     0  <0>0        0.0922
      3  N1        -0.6750   29.6120   58.9590 N.1     0  <0>0       -0.1942
      4  C2        -2.6680   28.7050   56.3120 C.3     0  <0>0        0.0352
      5  C1        -2.7260   27.7990   57.5440 C.3     0  <0>0        0.0029
      6  N2        -0.5640   29.7090   55.5710 N.pl3   0  <0>0       -0.3211
      7  H7         0.1570   30.3580   55.5700 H       0  <0>0        0.1477
      8  C5        -0.5680   28.6660   54.6390 C.ar    0  <0>0        0.0667
      9  C10       -1.2300   28.8180   53.4270 C.ar    0  <0>0        0.0721
     10  C9        -1.2280   27.7870   52.5060 C.ar    0  <0>0        0.0194
     11 Cl         -2.0560   30.3020   53.0680 Cl      0  <0>0       -0.0809
     12  C8        -0.5750   26.6020   52.7950 C.ar    0  <0>0        0.0363
     13  C7         0.0800   26.4460   54.0030 C.ar    0  <0>0        0.0194
     14 Br         -0.5810   25.1910   51.5340 Br      0  <0>0       -0.0489
     15  C6         0.0850   27.4740   54.9260 C.ar    0  <0>0        0.0721
     16 Cl          0.9080   27.2770   56.4410 Cl      0  <0>0       -0.0809
@<TRIPOS>BOND
     1    14    12    1
     2    10    12   ar
     3    10     9   ar
     4    12    13   ar
     5    11     9    1
     6     9     8   ar
     7    13    15   ar
     8     8    15   ar
     9     8     6    1
    10    15    16    1
    11     7     6    1
    12     6     1    1
    13     4     1    1
    14     4     5    1
    15     1     2    1
    16     2     3    3
