@<TRIPOS>MOLECULE
ZINC11615873_replica-1.pdb
 23 25 0 0 0
SMALL
GASTEIGER

@<TRIPOS>ATOM
      1  C5        13.0340   34.7240   62.5820 C.3     0  <0>0        0.0049
      2  C6        12.2830   35.3910   63.7390 C.3     0  <0>0        0.0083
      3  C7        11.6730   36.7120   63.2590 C.3     0  <0>0        0.0642
      4  C8        10.9080   36.4530   61.9810 C.ar    0  <0>0        0.1188
      5  C9        11.0690   35.3490   61.2310 C.ar    0  <0>0        0.0111
      6  C10       10.1580   35.4760   60.0950 C.ar    0  <0>0        0.0344
      7  C11        9.8560   34.6830   58.9870 C.ar    0  <0>0        0.0186
      8  C12        8.9130   35.1170   58.0730 C.ar    0  <0>0        0.0646
      9  C13        8.2730   36.3410   58.2570 C.ar    0  <0>0        0.0190
     10  C14        8.5620   37.1260   59.3510 C.ar    0  <0>0        0.0388
     11  C15        9.5050   36.7070   60.2800 C.ar    0  <0>0        0.1446
     12  O1         9.9860   37.2500   61.4200 O.2     0  <0>0       -0.4581
     13  C17       12.0230   34.2260   61.5420 C.3     0  <0>0        0.0292
     14  N1         8.6070   34.3280   56.9600 N.pl3   0  <0>0       -0.2187
     15  H18        9.0020   34.5320   56.0970 H       0  <0>0        0.1734
     16  S1         7.5680   33.0470   57.1130 S.O2    0  <0>0        0.0558
     17  O2         6.6790   33.4250   58.1560 O.2     0  <0>0       -0.1544
     18  O3         8.4110   31.9120   57.2550 O.2     0  <0>0       -0.1544
     19  C16        6.6810   32.9730   55.5330 C.3     0  <0>0        0.1996
     20  C2        13.8430   33.5390   63.1150 C.3     0  <0>0        0.0003
     21  C1        12.9610   32.2890   63.1390 C.3     0  <0>0        0.0000
     22  C3        15.0490   33.2950   62.2070 C.3     0  <0>0        0.0000
     23  C4        14.3270   33.8490   64.5330 C.3     0  <0>0        0.0000
@<TRIPOS>BOND
     1    19    16    1
     2    15    14    1
     3    14    16    1
     4    14     8    1
     5    16    18    2
     6    16    17    2
     7     8     9   ar
     8     8     7   ar
     9     9    10   ar
    10     7     6   ar
    11    10    11   ar
    12     6    11   ar
    13     6     5   ar
    14    11    12   ar
    15     5    13    1
    16     5     4   ar
    17    12     4   ar
    18    13     1    1
    19     4     3    1
    20    22    20    1
    21     1    20    1
    22     1     2    1
    23    20    21    1
    24    20    23    1
    25     3     2    1
