@<TRIPOS>MOLECULE
ZINC37265295_replica-1.pdb
 20 20 0 0 0
SMALL
GASTEIGER

@<TRIPOS>ATOM
      1  C7         0.3140   27.7890   55.0750 C.ar    0  <0>0        0.0543
      2  C8         0.6680   26.4460   55.0390 C.ar    0  <0>0        0.0149
      3  C9         0.3280   25.6700   53.9510 C.ar    0  <0>0        0.0052
      4  C10       -0.3680   26.2210   52.8860 C.ar    0  <0>0        0.0722
      5  C11       -0.7280   27.5510   52.9040 C.ar    0  <0>0        0.0154
      6  C12       -0.3950   28.3490   54.0010 C.ar    0  <0>0        0.0814
      7  C13       -0.7720   29.7300   54.0290 C.1     0  <0>0        0.1016
      8  N2        -1.0710   30.8260   54.0500 N.1     0  <0>0       -0.1908
      9  N1         0.6560   28.5730   56.1710 N.pl3   0  <0>0       -0.3335
     10  H14        1.1620   29.3920   56.0440 H       0  <0>0        0.1468
     11  C2         0.2540   28.1630   57.5190 C.3     0  <0>0        0.0691
     12  C1         1.4310   28.3410   58.4790 C.3     0  <0>0        0.0212
     13  C3        -0.9190   29.0270   57.9850 C.3     0  <0>0        0.0195
     14  C4        -2.2070   28.2030   57.9460 C.3     0  <0>0        0.0016
     15  C5        -2.9930   28.5440   56.6770 C.3     0  <0>0        0.0001
     16  C6        -1.8600   26.7130   57.9440 C.3     0  <0>0        0.0001
     17  C14       -0.7320   25.3610   51.7040 C.3     0  <0>0        0.4186
     18  F1         0.2750   25.4480   50.7360 F       0  <0>0       -0.1659
     19  F2        -0.8660   24.0320   52.1180 F       0  <0>0       -0.1659
     20  F3        -1.9420   25.8030   51.1590 F       0  <0>0       -0.1659
@<TRIPOS>BOND
     1    18    17    1
     2    20    17    1
     3    17    19    1
     4    17     4    1
     5     4     5   ar
     6     4     3   ar
     7     5     6   ar
     8     3     2   ar
     9     6     7    1
    10     6     1   ar
    11     7     8    3
    12     2     1   ar
    13     1     9    1
    14    10     9    1
    15     9    11    1
    16    15    14    1
    17    11    13    1
    18    11    12    1
    19    16    14    1
    20    14    13    1
