@<TRIPOS>MOLECULE
ZINC64442244_replica-1.pdb
 24 24 0 0 0
SMALL
GASTEIGER

@<TRIPOS>ATOM
      1  C3        -2.2140   29.9020   56.0390 C.2     0  <0>0        0.3353
      2  O1        -2.4210   31.0890   55.9480 O.2     0  <0>0       -0.2483
      3  C2        -1.8660   29.2980   57.3750 C.3     0  <0>0        0.1740
      4  C1        -0.5910   29.9510   57.9130 C.3     0  <0>0        0.0334
      5  N1        -1.6490   27.8580   57.2190 N.am    0  <0>0       -0.2624
      6  C12       -2.0220   27.0100   58.1980 C.2     0  <0>0        0.4018
      7  O3        -2.5380   27.4400   59.2100 O.2     0  <0>0       -0.2264
      8  H12       -1.2370   27.5140   56.4110 H       0  <0>0        0.1532
      9  O4        -1.8230   25.6870   58.0550 O.3     0  <0>0       -0.4419
     10  C13       -0.4760   25.2170   58.1580 C.3     0  <0>0        0.1378
     11  C14        0.2840   26.0710   59.1750 C.3     0  <0>0        0.0437
     12  C15       -0.4780   23.7580   58.6180 C.3     0  <0>0        0.0437
     13  C16        0.2050   25.3210   56.7920 C.3     0  <0>0        0.0437
     14  O2        -2.2930   29.1220   54.9500 O.3     0  <0>0       -0.4465
     15  C4        -1.3700   29.3880   53.8930 C.3     0  <0>0        0.1934
     16  C5        -0.0610   29.9190   54.4820 C.3     0  <0>0        0.0525
     17  C6        -1.0980   28.1160   53.1310 C.ar    0  <0>0        0.0449
     18  C11       -1.6440   27.9320   51.8720 C.ar    0  <0>0        0.1417
     19  C10       -1.3900   26.7670   51.1710 C.ar    0  <0>0        0.0590
     20  F1        -2.4220   28.8940   51.3270 F       0  <0>0       -0.2043
     21  C9        -0.5990   25.7810   51.7340 C.ar    0  <0>0        0.1424
     22  C8        -0.0570   25.9630   52.9950 C.ar    0  <0>0        0.0296
     23  F2        -0.3540   24.6400   51.0520 F       0  <0>0       -0.2041
     24  C7        -0.3070   27.1310   53.6920 C.ar    0  <0>0        0.0037
@<TRIPOS>BOND
     1    23    21    1
     2    19    21   ar
     3    19    18   ar
     4    20    18    1
     5    21    22   ar
     6    18    17   ar
     7    22    24   ar
     8    17    24   ar
     9    17    15    1
    10    15    16    1
    11    15    14    1
    12    14     1    1
    13     2     1    2
    14     1     3    1
    15     8     5    1
    16    13    10    1
    17     5     3    1
    18     5     6   am
    19     3     4    1
    20     9    10    1
    21     9     6    1
    22    10    12    1
    23    10    11    1
    24     6     7    2
