@<TRIPOS>MOLECULE
ZINC05556605_replica-1.pdb
 30 34 0 0 0
SMALL
GASTEIGER

@<TRIPOS>ATOM
      1  N1         1.8730   32.3870   57.1450 N.am    0  <0>0       -0.2506
      2  C9         2.0000   32.5280   58.4900 C.3     0  <0>0        0.2225
      3  N2         1.3170   31.7830   59.3160 N.2     0  <0>0       -0.2451
      4  C10        0.4800   30.8510   58.8660 C.2     0  <0>0        0.0973
      5  C11        0.2870   30.6270   57.4930 C.3     0  <0>0        0.1452
      6  C12        1.0470   31.4650   56.6150 C.2     0  <0>0        0.2372
      7  O2         0.9470   31.3460   55.4060 O.2     0  <0>0       -0.2740
      8  C13       -0.6620   29.5700   57.1660 C.2     0  <0>0       -0.0012
      9  C14       -1.2690   28.9030   58.1780 C.2     0  <0>0        0.0332
     10  S1        -0.5900   29.6660   59.6390 S.3     0  <0>0       -0.0717
     11  C8         2.6530   33.2480   56.2550 C.3     0  <0>0        0.1644
     12  C7         2.5670   34.6750   56.7320 C.2     0  <0>0        0.1931
     13  O1         1.5190   35.2810   56.6450 O.2     0  <0>0       -0.2895
     14  C6         3.7510   35.3320   57.3040 C.ar    0  <0>0        0.0366
     15  C1         4.8650   35.5960   56.5000 C.ar    0  <0>0        0.0052
     16  C2         5.9730   36.2080   57.0430 C.ar    0  <0>0        0.0297
     17  C3         5.9870   36.5610   58.3840 C.ar    0  <0>0        0.1401
     18  C4         4.8860   36.3020   59.1870 C.ar    0  <0>0        0.0297
     19  F1         7.0770   37.1600   58.9110 F       0  <0>0       -0.2042
     20  C5         3.7710   35.6910   58.6570 C.ar    0  <0>0        0.0052
     21  C15       -0.9590   29.2320   55.7540 C.ar    0  <0>0       -0.0030
     22  C20       -0.4000   28.0980   55.1710 C.ar    0  <0>0       -0.0049
     23  C19       -0.6780   27.7770   53.8510 C.ar    0  <0>0       -0.0261
     24  C18       -1.5140   28.5830   53.1110 C.ar    0  <0>0       -0.0261
     25  C21       -0.0330   26.5390   53.2830 C.3     0  <0>0        0.0260
     26  C17       -2.0710   29.7190   53.6890 C.ar    0  <0>0       -0.0046
     27  C24       -1.8640   28.2870   51.6760 C.3     0  <0>0        0.0260
     28  C16       -1.8070   30.0440   55.0000 C.ar    0  <0>0       -0.0006
     29  C23       -0.8670   27.3000   51.0730 C.3     0  <0>0        0.0050
     30  C22       -0.7530   26.0940   52.0130 C.3     0  <0>0        0.0050
@<TRIPOS>BOND
     1    29    27    1
     2    29    30    1
     3    27    24    1
     4    30    25    1
     5    24    26   ar
     6    24    23   ar
     7    25    23    1
     8    26    28   ar
     9    23    22   ar
    10    28    21   ar
    11    22    21   ar
    12     7     6    2
    13    21     8    1
    14    11    12    1
    15    11     1    1
    16    15    16   ar
    17    15    14   ar
    18     6     1   am
    19     6     5    1
    20    13    12    2
    21    12    14    1
    22    16    17   ar
    23     1     2    1
    24     8     5    1
    25     8     9    2
    26    14    20   ar
    27     5     4    1
    28     9    10    1
    29    17    19    1
    30    17    18   ar
    31     2     3    1
    32    20    18   ar
    33     4     3    2
    34     4    10    1
