@<TRIPOS>MOLECULE
ZINC37564455_replica-1.pdb
 21 21 0 0 0
SMALL
GASTEIGER

@<TRIPOS>ATOM
      1  C6        10.4830   35.9290   60.9150 C.ar    0  <0>0        0.0534
      2  C7        10.3800   35.0180   59.8590 C.ar    0  <0>0        0.0050
      3  C8         9.5190   35.2660   58.8210 C.ar    0  <0>0        0.0065
      4  C9         8.7480   36.4260   58.8180 C.ar    0  <0>0        0.0328
      5  C10        8.8480   37.3370   59.8680 C.ar    0  <0>0        0.0065
      6  C11        9.7020   37.0890   60.9120 C.ar    0  <0>0        0.0050
      7  C5        11.4080   35.6640   62.0320 C.2     0  <0>0        0.2462
      8  N1        12.0260   34.4690   62.1270 N.am    0  <0>0       -0.2915
      9  H8        11.8620   33.7840   61.4600 H       0  <0>0        0.1502
     10  O3        11.6130   36.5210   62.8680 O.2     0  <0>0       -0.2701
     11  C4        12.9440   34.2060   63.2370 C.3     0  <0>0        0.2008
     12  C3        13.3540   32.7550   63.2160 C.2     0  <0>0        0.3373
     13  O2        14.5190   32.4590   63.0930 O.2     0  <0>0       -0.2482
     14  O1        12.4250   31.7940   63.3320 O.3     0  <0>0       -0.4473
     15  C2        12.8910   30.4430   63.3700 C.3     0  <0>0        0.2086
     16  C1        12.4220   29.7780   64.6650 C.3     0  <0>0        0.0513
     17  S1         7.6430   36.7440   57.4820 S.3     0  <0>0       -0.0144
     18  C12        7.9530   38.4820   57.0610 C.3     0  <0>0        0.4477
     19  F1         9.3320   38.6980   56.9560 F       0  <0>0       -0.1600
     20  F2         7.3400   38.7820   55.8400 F       0  <0>0       -0.1600
     21  F3         7.4260   39.3050   58.0620 F       0  <0>0       -0.1600
@<TRIPOS>BOND
     1    20    18    1
     2    19    18    1
     3    18    17    1
     4    18    21    1
     5    17     4    1
     6     4     3   ar
     7     4     5   ar
     8     3     2   ar
     9     2     1   ar
    10     5     6   ar
    11     6     1   ar
    12     1     7    1
    13     9     8    1
    14     7     8   am
    15     7    10    2
    16     8    11    1
    17    13    12    2
    18    12    11    1
    19    12    14    1
    20    14    15    1
    21    15    16    1
