@<TRIPOS>MOLECULE
ZINC12275378_replica-1.pdb
 28 31 0 0 0
SMALL
GASTEIGER

@<TRIPOS>ATOM
      1  C7         4.2710   34.2160   59.3200 C.3     0  <0>0        0.0652
      2  C8         5.2270   33.0310   59.4320 C.3     0  <0>0        0.0952
      3  C9         6.6570   33.4610   59.2560 C.2     0  <0>0        0.2322
      4  O1         7.5350   32.9750   59.9380 O.2     0  <0>0       -0.2744
      5  N1         6.9520   34.4080   58.3130 N.am    0  <0>0       -0.2297
      6  C10        5.9130   35.1090   57.7190 C.2     0  <0>0        0.0879
      7  C11        4.6140   35.0480   58.1040 C.2     0  <0>0        0.0700
      8  C12        3.5970   35.7490   57.3800 C.1     0  <0>0        0.0982
      9  N2         2.7900   36.3060   56.8060 N.1     0  <0>0       -0.1911
     10  S1         6.6270   36.0850   56.4260 S.3     0  <0>0       -0.0938
     11  C13        8.3930   35.6640   56.6780 C.3     0  <0>0        0.1146
     12  C14        8.3060   34.6980   57.8720 C.3     0  <0>0        0.1853
     13  C3         2.8580   33.7090   59.1960 C.ar    0  <0>0       -0.0150
     14  C2         2.5390   32.7840   58.2190 C.ar    0  <0>0       -0.0038
     15  C1         1.2410   32.3230   58.1000 C.ar    0  <0>0        0.0020
     16  C6         0.2630   32.7800   58.9630 C.ar    0  <0>0        0.0296
     17  C5         0.5820   33.7020   59.9460 C.ar    0  <0>0        0.1398
     18  C4         1.8830   34.1630   60.0630 C.ar    0  <0>0        0.0257
     19  F1        -0.3730   34.1500   60.7890 F       0  <0>0       -0.2042
     20  C15        9.0680   35.2950   59.0270 C.ar    0  <0>0        0.0209
     21  C20       10.1260   34.6040   59.5880 C.ar    0  <0>0        0.0020
     22  C19       10.8250   35.1510   60.6470 C.ar    0  <0>0        0.0294
     23  C18       10.4660   36.3920   61.1460 C.ar    0  <0>0        0.1401
     24  C17        9.4060   37.0840   60.5830 C.ar    0  <0>0        0.0294
     25  F2        11.1490   36.9280   62.1810 F       0  <0>0       -0.2042
     26  C16        8.7120   36.5370   59.5200 C.ar    0  <0>0        0.0020
     27  O2         8.9370   33.4690   57.5080 O.3     0  <0>0       -0.3659
     28  H14        9.9040   33.5120   57.4910 H       0  <0>0        0.2124
@<TRIPOS>BOND
     1    10    11    1
     2    10     6    1
     3    11    12    1
     4     9     8    3
     5     8     7    1
     6    28    27    1
     7    27    12    1
     8     6     7    2
     9     6     5    1
    10    12     5    1
    11    12    20    1
    12    15    14   ar
    13    15    16   ar
    14     7     1    1
    15    14    13   ar
    16     5     3   am
    17    16    17   ar
    18    20    26   ar
    19    20    21   ar
    20    13     1    1
    21    13    18   ar
    22     3     2    1
    23     3     4    2
    24     1     2    1
    25    26    24   ar
    26    21    22   ar
    27    17    18   ar
    28    17    19    1
    29    24    23   ar
    30    22    23   ar
    31    23    25    1
