@<TRIPOS>MOLECULE
ZINC27696741_replica-1.pdb
 33 36 0 0 0
SMALL
GASTEIGER

@<TRIPOS>ATOM
      1  N2         0.2240   30.3000   57.4490 N.pl3   0  <0>0       -0.2762
      2  C10       -0.0750   30.0130   58.7650 C.3     0  <0>0        0.1497
      3  C11        0.4100   30.4600   59.9870 C.2     0  <0>0        0.0004
      4  C12       -0.1180   29.9560   61.1570 C.2     0  <0>0       -0.0024
      5  C13       -1.1350   29.0130   61.1210 C.2     0  <0>0        0.0021
      6  C14       -1.6270   28.5640   59.9280 C.2     0  <0>0        0.0296
      7  C15       -1.1050   29.0580   58.7300 C.2     0  <0>0        0.1324
      8  N3        -1.3750   28.8160   57.4210 N.2     0  <0>0       -0.3935
      9  C16       -0.5980   29.5430   56.6720 C.2     0  <0>0        0.1646
     10  C9         1.2380   31.2450   56.9740 C.3     0  <0>0        0.1204
     11  C8         0.6720   32.6660   57.0190 C.3     0  <0>0        0.1097
     12  C7         1.8020   33.6570   57.3050 C.3     0  <0>0       -0.0448
     13  N1         1.3590   34.6270   58.3160 N.4     0  <0>0        0.3940
     14  H30        0.9870   35.5170   57.7880 H       0  <0>0       -0.0786
     15  C3         0.2540   34.0840   59.1180 C.3     0  <0>0       -0.0497
     16  C2         0.6240   34.1330   60.5790 C.2     0  <0>0       -0.0491
     17  C1        -0.2890   33.9100   61.4930 C.2     0  <0>0       -0.0071
     18  C4         2.4770   35.0440   59.1720 C.3     0  <0>0       -0.0497
     19  C5         3.5450   35.6870   58.3250 C.2     0  <0>0       -0.0491
     20  C6         4.6360   36.1470   58.8850 C.2     0  <0>0       -0.0071
     21  O1         0.0720   32.9790   55.7600 O.3     0  <0>0       -0.3849
     22  H29       -0.7780   32.3840   55.3920 H       0  <0>0        0.2103
     23  C17       -0.6070   29.5470   55.1660 C.3     0  <0>0        0.1011
     24  C18       -0.3060   28.1590   54.6580 C.ar    0  <0>0       -0.0138
     25  C23       -0.7690   27.7520   53.3960 C.ar    0  <0>0       -0.0035
     26  C22       -0.4770   26.4440   52.9370 C.ar    0  <0>0       -0.0003
     27  C24       -1.5170   28.6180   52.5800 C.ar    0  <0>0       -0.0003
     28  C21        0.2710   25.5780   53.7540 C.ar    0  <0>0       -0.0000
     29  C27       -0.9400   26.0370   51.6740 C.ar    0  <0>0       -0.0000
     30  C20        0.7030   26.0070   54.9710 C.ar    0  <0>0       -0.0003
     31  C19        0.4200   27.2950   55.4200 C.ar    0  <0>0       -0.0038
     32  C26       -1.6610   26.9030   50.9100 C.ar    0  <0>0       -0.0000
     33  C25       -1.9490   28.1900   51.3620 C.ar    0  <0>0       -0.0000
@<TRIPOS>BOND
     1    32    33   ar
     2    32    29   ar
     3    33    27   ar
     4    29    26   ar
     5    27    25   ar
     6    26    25   ar
     7    26    28   ar
     8    25    24   ar
     9    28    30   ar
    10    24    23    1
    11    24    31   ar
    12    30    31   ar
    13    23     9    1
    14    22    21    1
    15    21    11    1
    16     9     8    2
    17     9     1    1
    18    10    11    1
    19    10     1    1
    20    11    12    1
    21    12    13    1
    22     8     7    2
    23     1     2    1
    24    14    13    1
    25    13    15    1
    26    13    18    1
    27    19    20    2
    28    19    18    1
    29     7     2    1
    30     7     6    1
    31     2     3    1
    32    15    16    1
    33     6     5    2
    34     3     4    2
    35    16    17    2
    36     5     4    1
