@<TRIPOS>MOLECULE
ZINC35698928_replica-1.pdb
 31 33 0 0 0
SMALL
GASTEIGER

@<TRIPOS>ATOM
      1  N1         7.6070   36.1520   58.5390 N.4     0  <0>0        0.3971
      2  H29        7.7050   35.2830   59.0400 H       0  <0>0       -0.0784
      3  C2         6.3090   36.7600   58.8620 C.3     0  <0>0       -0.0340
      4  C1         6.4990   37.8260   59.9420 C.3     0  <0>0       -0.0183
      5  C3         5.3690   35.6960   59.3660 C.ar    0  <0>0       -0.0415
      6  C8         4.0810   35.6190   58.8680 C.ar    0  <0>0       -0.0063
      7  C7         3.2200   34.6410   59.3280 C.ar    0  <0>0       -0.0004
      8  C6         3.6430   33.7440   60.2920 C.ar    0  <0>0       -0.0000
      9  C5         4.9280   33.8250   60.7940 C.ar    0  <0>0       -0.0004
     10  C4         5.7910   34.8000   60.3310 C.ar    0  <0>0       -0.0063
     11  C9         8.6870   37.0680   58.9310 C.3     0  <0>0       -0.0491
     12  C10        9.6240   36.3630   59.8780 C.ar    0  <0>0       -0.0432
     13  C15        9.9950   36.9700   61.0640 C.ar    0  <0>0       -0.0067
     14  C14       10.8520   36.3210   61.9340 C.ar    0  <0>0       -0.0047
     15  C13       11.3440   35.0700   61.6140 C.ar    0  <0>0       -0.0228
     16  C12       10.9780   34.4660   60.4250 C.ar    0  <0>0       -0.0047
     17  C11       10.1190   35.1130   59.5570 C.ar    0  <0>0       -0.0067
     18  C16       12.2820   34.3650   62.5600 C.3     0  <0>0        0.0189
     19  C17       12.4480   35.1990   63.8310 C.3     0  <0>0        0.0044
     20  C18       11.7050   32.9940   62.9210 C.3     0  <0>0        0.0044
     21  C19       13.6430   34.1840   61.8860 C.3     0  <0>0        0.0044
     22  C20        7.6830   35.8960   57.0950 C.3     0  <0>0       -0.0097
     23  C21        7.4720   34.4270   56.8330 C.3     0  <0>0        0.2209
     24  O1         6.9700   33.9050   55.7050 O.2     0  <0>0       -0.4583
     25  C23        6.9350   32.5700   55.8390 C.2     0  <0>0        0.1951
     26  C22        7.4190   32.2830   57.0800 C.2     0  <0>0        0.1653
     27  N2         7.7430   33.4690   57.6670 N.pl3   0  <0>0       -0.2950
     28  H28        8.1120   33.5790   58.5570 H       0  <0>0        0.1502
     29  C24        7.5650   30.9470   57.6750 C.2     0  <0>0        0.4038
     30  O2         6.9000   30.0110   57.2500 O.co2   0  <0>0       -0.2390
     31  O3         8.3510   30.7690   58.5960 O.co2   0  <0>0       -0.2390
@<TRIPOS>BOND
     1    24    25    1
     2    24    23    1
     3    25    26    2
     4    23    22    1
     5    23    27    1
     6    26    27    1
     7    26    29    1
     8    22     1    1
     9    30    29   ar
    10    27    28    1
    11    29    31   ar
    12     1     3    1
    13     1    11    1
    14     1     2    1
    15     3     5    1
    16     3     4    1
    17     6     7   ar
    18     6     5   ar
    19    11    12    1
    20     7     8   ar
    21     5    10   ar
    22    17    12   ar
    23    17    16   ar
    24    12    13   ar
    25     8     9   ar
    26    10     9   ar
    27    16    15   ar
    28    13    14   ar
    29    15    14   ar
    30    15    18    1
    31    21    18    1
    32    18    20    1
    33    18    19    1
