@<TRIPOS>MOLECULE
ZINC41587209_replica-1.pdb
 31 35 0 0 0
SMALL
GASTEIGER

@<TRIPOS>ATOM
      1  C1         4.9650   32.8650   60.4830 C.3     0  <0>0        0.0374
      2  C2         4.5590   33.6630   59.2710 C.ar    0  <0>0        0.0465
      3  C3         3.2930   33.4950   58.7250 C.ar    0  <0>0        0.1366
      4  C4         2.9060   34.2280   57.6070 C.ar    0  <0>0        0.0280
      5  C5         3.7750   35.1170   57.0360 C.ar    0  <0>0        0.0064
      6  C6         5.0480   35.2940   57.5740 C.ar    0  <0>0        0.0762
      7  C7         5.4480   34.5680   58.7080 C.ar    0  <0>0        0.1474
      8  O1         6.7090   34.9120   59.0500 O.3     0  <0>0       -0.4504
      9  C8         7.2190   35.8480   58.2150 C.2     0  <0>0        0.1840
     10  C9         8.4560   36.3980   58.2880 C.2     0  <0>0        0.0408
     11  C19        6.1910   36.1510   57.2060 C.2     0  <0>0        0.2327
     12  O2         6.2620   36.9420   56.2820 O.2     0  <0>0       -0.2832
     13  C20        1.5320   34.0570   57.0120 C.3     0  <0>0        0.1054
     14  N1         0.9380   32.8030   57.4950 N.3     0  <0>0       -0.2270
     15  C21        1.0570   32.7160   58.9600 C.3     0  <0>0        0.2851
     16  O3         2.4420   32.6050   59.2990 O.3     0  <0>0       -0.4586
     17  C10        9.3410   36.0700   59.4160 C.ar    0  <0>0        0.0031
     18  C15        9.4590   36.9500   60.4970 C.ar    0  <0>0       -0.0002
     19  C14       10.2850   36.6320   61.5530 C.ar    0  <0>0       -0.0043
     20  C13       11.0050   35.4500   61.5410 C.ar    0  <0>0       -0.0225
     21  C12       10.8990   34.5760   60.4730 C.ar    0  <0>0       -0.0043
     22  C11       10.0720   34.8770   59.4120 C.ar    0  <0>0       -0.0002
     23  C16       11.9120   35.1130   62.6970 C.3     0  <0>0        0.0224
     24  C17       13.2180   34.5210   62.1660 C.3     0  <0>0        0.0047
     25  C18       12.2150   36.3840   63.4950 C.3     0  <0>0        0.0047
     26  C22       -0.4650   32.6880   57.0740 C.3     0  <0>0        0.1088
     27  C23       -0.6120   31.5260   56.1260 C.ar    0  <0>0        0.0236
     28  S1        -2.0180   30.4570   55.8680 S.2     0  <0>0       -0.0894
     29  C26       -1.3110   29.4100   54.6060 C.ar    0  <0>0        0.0352
     30  C25       -0.0670   29.9330   54.4730 C.ar    0  <0>0        0.0072
     31  C24        0.2920   31.0170   55.2530 C.ar    0  <0>0        0.0041
@<TRIPOS>BOND
     1    30    29   ar
     2    30    31   ar
     3    29    28   ar
     4    31    27   ar
     5    28    27   ar
     6    27    26    1
     7    12    11    2
     8    13    14    1
     9    13     4    1
    10     5     6   ar
    11     5     4   ar
    12    26    14    1
    13    11     6    1
    14    11     9    1
    15    14    15    1
    16     6     7   ar
    17     4     3   ar
    18     9    10    2
    19     9     8    1
    20    10    17    1
    21     7     8    1
    22     7     2   ar
    23     3     2   ar
    24     3    16    1
    25    15    16    1
    26     2     1    1
    27    22    17   ar
    28    22    21   ar
    29    17    18   ar
    30    21    20   ar
    31    18    19   ar
    32    20    19   ar
    33    20    23    1
    34    24    23    1
    35    23    25    1
