@<TRIPOS>MOLECULE
ZINC05695473_replica-1.pdb
 28 31 0 0 0
SMALL
GASTEIGER

@<TRIPOS>ATOM
      1  C8        -0.3340   29.2200   55.1840 C.2     0  <0>0        0.0628
      2  N1         0.4030   30.2180   54.8680 N.2     0  <0>0       -0.1865
      3  C7         0.1730   27.8160   54.9840 C.3     0  <0>0        0.0695
      4  C4        -0.3310   27.2840   53.6670 C.ar    0  <0>0       -0.0165
      5  C3        -1.0550   28.1040   52.8220 C.ar    0  <0>0       -0.0039
      6  C2        -1.5160   27.6160   51.6130 C.ar    0  <0>0       -0.0003
      7  C1        -1.2530   26.3080   51.2500 C.ar    0  <0>0       -0.0000
      8  C6        -0.5270   25.4890   52.0940 C.ar    0  <0>0       -0.0003
      9  C5        -0.0620   25.9780   53.3010 C.ar    0  <0>0       -0.0039
     10  C16       -1.7100   29.4510   55.7540 C.3     0  <0>0        0.0695
     11  C17       -1.7840   28.8660   57.1410 C.ar    0  <0>0       -0.0165
     12  C22       -1.0380   29.4170   58.1650 C.ar    0  <0>0       -0.0039
     13  C21       -1.1060   28.8800   59.4370 C.ar    0  <0>0       -0.0003
     14  C20       -1.9210   27.7910   59.6850 C.ar    0  <0>0       -0.0000
     15  C19       -2.6680   27.2400   58.6600 C.ar    0  <0>0       -0.0003
     16  C18       -2.6040   27.7800   57.3900 C.ar    0  <0>0       -0.0039
     17  N2        -0.0690   31.5250   55.0540 N.pl3   0  <0>0       -0.1985
     18  C9         0.5190   32.3430   55.9960 C.cat   0  <0>0        0.2543
     19  N4         1.5200   32.0020   56.7690 N.2     0  <0>0       -0.3744
     20  N3         0.1400   33.6280   56.2650 N.pl3   0  <0>0       -0.2873
     21  C15        1.8500   33.0470   57.5740 C.2     0  <0>0        0.1340
     22  C10        0.9720   34.0990   57.2670 C.3     0  <0>0        0.1477
     23  C14        2.8200   33.2260   58.5630 C.2     0  <0>0        0.0297
     24  C11        1.0740   35.3050   57.9450 C.2     0  <0>0        0.0003
     25  C12        2.0360   35.4650   58.9200 C.2     0  <0>0       -0.0024
     26  C13        2.9060   34.4290   59.2270 C.2     0  <0>0        0.0021
     27  H1        -0.5990   34.1340   55.8220 H       0  <0>0        0.1511
     28  H9        -0.8110   31.8520   54.5220 H       0  <0>0        0.1782
@<TRIPOS>BOND
     1     7     6   ar
     2     7     8   ar
     3     6     5   ar
     4     8     9   ar
     5     5     4   ar
     6     9     4   ar
     7     4     3    1
     8    28    17    1
     9     2    17    1
    10     2     1    2
    11     3     1    1
    12    17    18    1
    13     1    10    1
    14    10    11    1
    15    27    20    1
    16    18    20    1
    17    18    19    2
    18    20    22    1
    19    19    21    2
    20    11    16   ar
    21    11    12   ar
    22    22    21    1
    23    22    24    1
    24    16    15   ar
    25    21    23    1
    26    24    25    2
    27    12    13   ar
    28    23    26    2
    29    15    14   ar
    30    25    26    1
    31    13    14   ar
