@<TRIPOS>MOLECULE
ZINC49137011_replica-1.pdb
 19 20 0 0 0
SMALL
GASTEIGER

@<TRIPOS>ATOM
      1  C5         8.8780   36.7240   58.7420 C.ar    0  <0>0       -0.0224
      2  C6         9.1280   37.4750   59.8760 C.ar    0  <0>0       -0.0030
      3  C7         9.8990   36.9520   60.8960 C.ar    0  <0>0        0.0140
      4  C8        10.4220   35.6700   60.7820 C.ar    0  <0>0        0.0449
      5  C9        10.1680   34.9180   59.6420 C.ar    0  <0>0        0.0140
      6  C10        9.3920   35.4450   58.6270 C.ar    0  <0>0       -0.0030
      7  N1        11.2010   35.1390   61.8120 N.pl3   0  <0>0       -0.3279
      8  H14       11.6990   35.7300   62.3980 H       0  <0>0        0.1472
      9  C11       11.2670   33.6880   62.0060 C.3     0  <0>0        0.1317
     10  C12       12.6230   33.3160   62.5490 C.ar    0  <0>0        0.0571
     11  N2        12.9200   32.1810   63.2440 N.ar    0  <0>0       -0.3260
     12  C15       14.2460   32.1970   63.5620 C.ar    0  <0>0        0.0758
     13  C16       11.9740   31.1180   63.5890 C.3     0  <0>0        0.1302
     14  C14       14.7810   33.3380   63.0800 C.ar    0  <0>0        0.0199
     15  C13       13.7490   34.0490   62.4360 C.ar    0  <0>0        0.0160
     16  C3         8.0370   37.2980   57.6300 C.3     0  <0>0        0.0223
     17  C4         8.6140   38.6480   57.2000 C.3     0  <0>0        0.0047
     18  C2         8.0420   36.3380   56.4390 C.3     0  <0>0        0.0044
     19  C1         7.4270   37.0330   55.2220 C.3     0  <0>0        0.0003
@<TRIPOS>BOND
     1    19    18    1
     2    18    16    1
     3    17    16    1
     4    16     1    1
     5     6     1   ar
     6     6     5   ar
     7     1     2   ar
     8     5     4   ar
     9     2     3   ar
    10     4     3   ar
    11     4     7    1
    12     7     9    1
    13     7     8    1
    14     9    10    1
    15    15    10   ar
    16    15    14   ar
    17    10    11   ar
    18    14    12   ar
    19    11    12   ar
    20    11    13    1
