@<TRIPOS>MOLECULE
ZINC49544262_replica-1.pdb
 23 24 0 0 0
SMALL
GASTEIGER

@<TRIPOS>ATOM
      1  C9        -0.4400   30.3810   54.5380 C.3     0  <0>0        0.1031
      2  N1        -0.9630   31.5180   55.3070 N.3     0  <0>0       -0.2924
      3  H13       -1.8970   31.7560   55.0100 H       0  <0>0        0.1236
      4  C4        -0.9240   31.2410   56.7490 C.3     0  <0>0        0.0829
      5  C3        -0.5290   29.7820   56.9780 C.3     0  <0>0        0.0208
      6  C2        -1.5130   29.1330   57.9540 C.3     0  <0>0        0.0017
      7  C1        -2.4670   28.2180   57.1840 C.3     0  <0>0        0.0001
      8  C5         0.0860   32.1450   57.4070 C.ar    0  <0>0        0.0215
      9  S1         1.7830   31.8040   57.8440 S.2     0  <0>0       -0.0895
     10  C8         2.1860   33.3940   58.5480 C.ar    0  <0>0        0.0352
     11  C7         1.0170   34.0660   58.4120 C.ar    0  <0>0        0.0072
     12  C6        -0.0600   33.4260   57.8270 C.ar    0  <0>0        0.0040
     13  C10       -1.4850   29.9350   53.5130 C.3     0  <0>0        0.1505
     14  C11       -1.1680   28.5360   53.0490 C.ar    0  <0>0        0.0332
     15  C16       -1.6780   28.0730   51.8480 C.ar    0  <0>0        0.1407
     16  C15       -1.3830   26.7910   51.4190 C.ar    0  <0>0        0.0590
     17  F1        -2.4600   28.8750   51.0910 F       0  <0>0       -0.2043
     18  C14       -0.5870   25.9680   52.1980 C.ar    0  <0>0        0.1424
     19  C13       -0.0830   26.4310   53.4010 C.ar    0  <0>0        0.0295
     20  F2        -0.3020   24.7150   51.7830 F       0  <0>0       -0.2041
     21  C12       -0.3730   27.7140   53.8250 C.ar    0  <0>0        0.0026
     22  O1        -2.7810   29.9550   54.1150 O.3     0  <0>0       -0.3786
     23  H19       -3.2130   30.8190   54.0890 H       0  <0>0        0.2108
@<TRIPOS>BOND
     1    17    15    1
     2    16    15   ar
     3    16    18   ar
     4    20    18    1
     5    15    14   ar
     6    18    19   ar
     7    14    13    1
     8    14    21   ar
     9    19    21   ar
    10    13    22    1
    11    13     1    1
    12    23    22    1
    13     1     2    1
    14     3     2    1
    15     2     4    1
    16     4     5    1
    17     4     8    1
    18     5     6    1
    19     7     6    1
    20     8    12   ar
    21     8     9   ar
    22    12    11   ar
    23     9    10   ar
    24    11    10   ar
