@<TRIPOS>MOLECULE
ZINC00823260_replica-1.pdb
 23 25 0 0 0
SMALL
GASTEIGER

@<TRIPOS>ATOM
      1  C7         7.1900   35.0100   58.4660 C.3     0  <0>0        0.1897
      2  N1         7.0190   33.7840   57.6670 N.am    0  <0>0       -0.2322
      3  C8         7.0280   33.8940   56.3240 C.1     0  <0>0        0.2678
      4  O1         6.8870   32.8890   55.6480 O.2     0  <0>0       -0.1931
      5  N2         7.1870   35.0600   55.7150 N.2     0  <0>0       -0.3056
      6  C9         7.3490   36.2170   56.3560 C.2     0  <0>0        0.2028
      7  N3         7.3600   36.2660   57.7200 N.pl3   0  <0>0       -0.2416
      8  C10        7.5250   37.4390   58.3760 C.2     0  <0>0        0.0690
      9  C11        7.6830   38.5960   57.6890 C.2     0  <0>0        0.0163
     10  C12        7.6770   38.5860   56.2890 C.2     0  <0>0        0.0053
     11  C13        7.5110   37.4050   55.6230 C.2     0  <0>0        0.0491
     12  H5         6.9030   32.9220   58.0960 H       0  <0>0        0.1626
     13  C6         8.3970   34.8260   59.3500 C.ar    0  <0>0        0.0158
     14  C1         9.3280   35.8410   59.4690 C.ar    0  <0>0        0.0013
     15  C2        10.4350   35.6730   60.2790 C.ar    0  <0>0        0.0294
     16  C3        10.6120   34.4870   60.9710 C.ar    0  <0>0        0.1401
     17  C4         9.6820   33.4680   60.8480 C.ar    0  <0>0        0.0294
     18  F1        11.6940   34.3210   61.7630 F       0  <0>0       -0.2042
     19  C5         8.5730   33.6410   60.0400 C.ar    0  <0>0        0.0013
     20  C14        5.9650   35.1610   59.3710 C.3     0  <0>0        0.2330
     21 Cl          4.6560   36.0170   58.4730 Cl      0  <0>0       -0.0788
     22 Cl          5.3830   33.5290   59.8700 Cl      0  <0>0       -0.0788
     23 Cl          6.4120   36.1130   60.8350 Cl      0  <0>0       -0.0788
@<TRIPOS>BOND
     1    11    10    2
     2    11     6    1
     3     4     3    2
     4     5     3    2
     5     5     6    2
     6    10     9    1
     7     3     2   am
     8     6     7    1
     9     2    12    1
    10     2     1    1
    11     9     8    2
    12     7     8    1
    13     7     1    1
    14     1    13    1
    15     1    20    1
    16    21    20    1
    17    13    14   ar
    18    13    19   ar
    19    20    22    1
    20    20    23    1
    21    14    15   ar
    22    19    17   ar
    23    15    16   ar
    24    17    16   ar
    25    16    18    1
