@<TRIPOS>MOLECULE
ZINC21352696_replica-1.pdb
 33 36 0 0 0
SMALL
GASTEIGER

@<TRIPOS>ATOM
      1  C5         6.9990   36.3730   58.0950 C.3     0  <0>0        0.0052
      2  C6         6.4140   36.6240   56.7010 C.3     0  <0>0        0.0047
      3  C7         5.5960   35.4140   56.2560 C.3     0  <0>0        0.0231
      4  C8         4.5790   35.0730   57.3430 C.2     0  <0>0       -0.0268
      5  C9         4.7430   35.5340   58.6050 C.2     0  <0>0        0.0023
      6  S1         3.3540   34.9040   59.5120 S.3     0  <0>0       -0.0640
      7  C10        2.5590   34.0280   58.2020 C.2     0  <0>0        0.1514
      8  C11        3.4060   34.2550   57.0950 C.3     0  <0>0        0.1537
      9  C12        3.0210   33.6590   55.8470 C.2     0  <0>0        0.2383
     10  O1         3.6830   33.7930   54.8320 O.2     0  <0>0       -0.2739
     11  N1         1.8770   32.9350   55.8700 N.am    0  <0>0       -0.2623
     12  H2         1.5160   32.4480   54.9530 H       0  <0>0        0.1569
     13  C13        1.1280   32.7730   56.9870 C.2     0  <0>0        0.1632
     14  N2         1.4460   33.3030   58.1470 N.2     0  <0>0       -0.3884
     15  C23        5.8580   36.3900   59.1210 C.3     0  <0>0        0.0324
     16  C14       -0.1300   31.9450   56.8950 C.3     0  <0>0        0.0845
     17  C15        0.1600   30.5230   57.3790 C.3     0  <0>0        0.0942
     18  C16       -0.2650   29.5360   56.3230 C.2     0  <0>0        0.2266
     19  O2        -1.4090   29.1340   56.2950 O.2     0  <0>0       -0.2748
     20  N3         0.6260   29.1020   55.4090 N.am    0  <0>0       -0.2838
     21  H20        1.6410   29.5240   55.3880 H       0  <0>0        0.1549
     22  C17        0.2570   28.1140   54.4890 C.ar    0  <0>0        0.0526
     23  C22       -0.5100   28.4460   53.3800 C.ar    0  <0>0        0.0452
     24  C21       -0.8700   27.4670   52.4730 C.ar    0  <0>0        0.1518
     25  C20       -0.4670   26.1560   52.6690 C.ar    0  <0>0        0.0851
     26  F1        -1.6180   27.7890   51.3940 F       0  <0>0       -0.2032
     27  C19        0.2980   25.8240   53.7740 C.ar    0  <0>0        0.0149
     28 Cl         -0.9210   24.9290   51.5290 Cl      0  <0>0       -0.0799
     29  C18        0.6650   26.7990   54.6800 C.ar    0  <0>0        0.0157
     30  C2         8.0100   37.4710   58.4330 C.3     0  <0>0        0.0003
     31  C1         7.3280   38.5480   59.2790 C.3     0  <0>0        0.0000
     32  C3         8.5370   38.0940   57.1400 C.3     0  <0>0        0.0000
     33  C4         9.1750   36.8660   59.2200 C.3     0  <0>0        0.0000
@<TRIPOS>BOND
     1    26    24    1
     2    28    25    1
     3    24    25   ar
     4    24    23   ar
     5    25    27   ar
     6    23    22   ar
     7    27    29   ar
     8    22    29   ar
     9    22    20    1
    10    10     9    2
    11    12    11    1
    12    21    20    1
    13    20    18   am
    14     9    11   am
    15     9     8    1
    16    11    13    1
    17     3     2    1
    18     3     4    1
    19    19    18    2
    20    18    17    1
    21     2     1    1
    22    16    13    1
    23    16    17    1
    24    13    14    2
    25     8     4    1
    26     8     7    1
    27    32    30    1
    28     4     5    2
    29     1    30    1
    30     1    15    1
    31    14     7    2
    32     7     6    1
    33    30    33    1
    34    30    31    1
    35     5    15    1
    36     5     6    1
