@<TRIPOS>MOLECULE
ZINC61826720_replica-1.pdb
 22 22 0 0 0
SMALL
GASTEIGER

@<TRIPOS>ATOM
      1  N1         6.2120   36.6610   57.9290 N.am    0  <0>0       -0.3056
      2  C10        5.4840   35.5260   57.9080 C.2     0  <0>0        0.2224
      3  O1         6.0150   34.4710   57.6380 O.2     0  <0>0       -0.2751
      4  H11        5.7870   37.5060   58.1440 H       0  <0>0        0.1494
      5  C2         7.6440   36.6180   57.6260 C.3     0  <0>0        0.0759
      6  C1         7.8750   37.0850   56.1880 C.3     0  <0>0        0.0216
      7  C3         8.3970   37.5380   58.5900 C.3     0  <0>0        0.0459
      8  C4         9.2700   36.7100   59.4960 C.ar    0  <0>0       -0.0205
      9  C9         9.6580   37.2070   60.7260 C.ar    0  <0>0       -0.0037
     10  C8        10.4550   36.4450   61.5600 C.ar    0  <0>0        0.0064
     11  C7        10.8730   35.1890   61.1590 C.ar    0  <0>0        0.0345
     12  C6        10.4890   34.6940   59.9260 C.ar    0  <0>0        0.0064
     13 Br         11.9680   34.1500   62.2970 Br      0  <0>0       -0.0490
     14  C5         9.6880   35.4540   59.0950 C.ar    0  <0>0       -0.0037
     15  C11        4.0100   35.5710   58.2190 C.3     0  <0>0        0.0856
     16  C12        3.2120   35.4850   56.9170 C.3     0  <0>0        0.0194
     17  C13        3.9520   36.2440   55.8140 C.3     0  <0>0        0.0011
     18  C14        3.0540   34.0190   56.5100 C.3     0  <0>0        0.0011
     19  C15        1.8290   36.1080   57.1240 C.3     0  <0>0        0.1145
     20  C16        1.0470   35.2770   58.1090 C.2     0  <0>0        0.3649
     21  O2         1.2250   35.4210   59.3060 O.co2   0  <0>0       -0.2457
     22  O3         0.2370   34.4580   57.7070 O.co2   0  <0>0       -0.2457
@<TRIPOS>BOND
     1    17    16    1
     2     6     5    1
     3    18    16    1
     4    16    19    1
     5    16    15    1
     6    19    20    1
     7     5     1    1
     8     5     7    1
     9     3     2    2
    10    22    20   ar
    11     2     1   am
    12     2    15    1
    13     1     4    1
    14    20    21   ar
    15     7     8    1
    16    14     8   ar
    17    14    12   ar
    18     8     9   ar
    19    12    11   ar
    20     9    10   ar
    21    11    10   ar
    22    11    13    1
