@<TRIPOS>MOLECULE
ZINC18193104_replica-1.pdb
 25 28 0 0 0
SMALL
GASTEIGER

@<TRIPOS>ATOM
      1  N1        10.8650   34.7700   60.7590 N.am    0  <0>0       -0.1555
      2  C8        10.3110   35.9820   60.9630 C.2     0  <0>0        0.2728
      3  O1        10.4480   36.6950   61.9430 O.2     0  <0>0       -0.2678
      4  C9         9.5060   36.2670   59.7690 C.2     0  <0>0        0.0706
      5  C10        8.7400   37.4000   59.5140 C.2     0  <0>0        0.0073
      6  C19        9.6880   35.0970   58.9000 C.2     0  <0>0        0.0817
      7  N3        10.4770   34.2700   59.5160 N.2     0  <0>0       -0.1755
      8  C20        9.0740   34.8940   57.5390 C.3     0  <0>0        0.0539
      9  C11        8.1940   37.6080   58.2300 C.ar    0  <0>0        0.0186
     10  C14        6.9400   37.0420   57.6960 C.ar    0  <0>0        0.0170
     11  C13        6.8230   37.5340   56.3870 C.ar    0  <0>0        0.0566
     12  C15        5.9630   36.1980   58.2150 C.ar    0  <0>0        0.0015
     13  N2         7.9200   38.3370   56.1410 N.ar    0  <0>0       -0.3520
     14  C18        5.7240   37.1690   55.6170 C.ar    0  <0>0        0.0170
     15  C12        8.7270   38.3860   57.2170 C.ar    0  <0>0        0.0724
     16  H1         8.0850   38.8030   55.3060 H       0  <0>0        0.1660
     17  C17        4.7660   36.3270   56.1410 C.ar    0  <0>0        0.0015
     18  C16        4.8810   35.8460   57.4360 C.ar    0  <0>0        0.0001
     19  C7        11.7120   34.1120   61.6590 C.ar    0  <0>0        0.0731
     20  C2        11.2970   32.9380   62.2730 C.ar    0  <0>0       -0.0063
     21  C1         9.9350   32.3700   61.9720 C.3     0  <0>0        0.0324
     22  C3        12.1380   32.2890   63.1570 C.ar    0  <0>0       -0.0030
     23  C4        13.3850   32.8130   63.4390 C.ar    0  <0>0       -0.0002
     24  C5        13.7990   33.9860   62.8330 C.ar    0  <0>0        0.0013
     25  C6        12.9670   34.6370   61.9450 C.ar    0  <0>0        0.0165
@<TRIPOS>BOND
     1    16    13    1
     2    14    17   ar
     3    14    11   ar
     4    17    18   ar
     5    13    11   ar
     6    13    15   ar
     7    11    10   ar
     8    15     9   ar
     9    18    12   ar
    10     8     6    1
    11    10    12   ar
    12    10     9   ar
    13     9     5    1
    14     6     7    2
    15     6     4    1
    16     5     4    2
    17     7     1    1
    18     4     2    1
    19     1     2   am
    20     1    19    1
    21     2     3    2
    22    19    25   ar
    23    19    20   ar
    24    25    24   ar
    25    21    20    1
    26    20    22   ar
    27    24    23   ar
    28    22    23   ar
