@<TRIPOS>MOLECULE
ZINC06941663_replica-1.pdb
 23 24 0 0 0
SMALL
GASTEIGER

@<TRIPOS>ATOM
      1  C4         8.1480   34.7230   58.0180 C.3     0  <0>0        0.1728
      2  C3         7.2830   34.3240   56.8500 C.2     0  <0>0        0.3312
      3  O2         6.5680   33.3540   56.9310 O.2     0  <0>0       -0.2488
      4  O1         7.3070   35.0480   55.7200 O.3     0  <0>0       -0.4477
      5  C2         6.0510   35.3000   55.0850 C.3     0  <0>0        0.2086
      6  C1         5.3380   36.4480   55.8020 C.3     0  <0>0        0.0513
      7  C5         7.8680   36.1570   58.3850 C.ar    0  <0>0       -0.0016
      8  C10        6.8530   36.4590   59.2720 C.ar    0  <0>0       -0.0029
      9  C9         6.5990   37.7740   59.6110 C.ar    0  <0>0       -0.0003
     10  C8         7.3540   38.7890   59.0570 C.ar    0  <0>0       -0.0000
     11  C7         8.3670   38.4890   58.1650 C.ar    0  <0>0       -0.0003
     12  C6         8.6240   37.1730   57.8290 C.ar    0  <0>0       -0.0029
     13  S1         7.7790   33.6530   59.4370 S.3     0  <0>0       -0.0988
     14  C11        9.2530   33.7000   60.4010 C.ar    0  <0>0        0.0260
     15  C16       10.0730   34.8220   60.3640 C.ar    0  <0>0        0.0058
     16  C15       11.2240   34.8570   61.1260 C.ar    0  <0>0       -0.0038
     17  C14       11.5670   33.7740   61.9150 C.ar    0  <0>0       -0.0228
     18  C13       10.7560   32.6550   61.9510 C.ar    0  <0>0       -0.0038
     19  C12        9.5990   32.6140   61.1960 C.ar    0  <0>0        0.0058
     20  C17       12.8270   33.8140   62.7410 C.3     0  <0>0        0.0189
     21  C18       13.0750   32.4370   63.3600 C.3     0  <0>0        0.0044
     22  C19       14.0110   34.1920   61.8470 C.3     0  <0>0        0.0044
     23  C20       12.6760   34.8540   63.8530 C.3     0  <0>0        0.0044
@<TRIPOS>BOND
     1     5     4    1
     2     5     6    1
     3     4     2    1
     4     2     3    2
     5     2     1    1
     6    12    11   ar
     7    12     7   ar
     8     1     7    1
     9     1    13    1
    10    11    10   ar
    11     7     8   ar
    12    10     9   ar
    13     8     9   ar
    14    13    14    1
    15    15    14   ar
    16    15    16   ar
    17    14    19   ar
    18    16    17   ar
    19    19    18   ar
    20    22    20    1
    21    17    18   ar
    22    17    20    1
    23    20    21    1
    24    20    23    1
