@<TRIPOS>MOLECULE
ZINC36956259_replica-1.pdb
 18 19 0 0 0
SMALL
GASTEIGER

@<TRIPOS>ATOM
      1  C6        10.5030   35.1680   60.8430 C.3     0  <0>0        0.0999
      2  C7        10.1830   36.4810   61.1780 C.2     0  <0>0       -0.0036
      3  C8         9.4500   37.2750   60.3350 C.2     0  <0>0        0.0297
      4  C9         8.9920   36.7820   59.0910 C.2     0  <0>0        0.1382
      5  C10        9.3340   35.4460   58.7820 C.2     0  <0>0        0.0592
      6  C11       10.0730   34.6550   59.6260 C.2     0  <0>0        0.0029
      7  S1         8.5920   35.2250   57.1830 S.3     0  <0>0       -0.0468
      8  C12        7.8970   36.8650   57.0280 C.2     0  <0>0        0.1870
      9  N2         8.2650   37.4330   58.1540 N.2     0  <0>0       -0.3886
     10  N1        11.2520   34.3750   61.7200 N.3     0  <0>0       -0.2916
     11  H12       11.0590   33.4280   61.8040 H       0  <0>0        0.1238
     12  C5        12.3290   34.9760   62.5120 C.3     0  <0>0        0.0690
     13  C3        13.1140   33.8730   63.2240 C.3     0  <0>0        0.0158
     14  C4        14.5060   33.7520   62.5980 C.3     0  <0>0        0.0014
     15  C2        12.3730   32.5430   63.0780 C.3     0  <0>0        0.0014
     16  C1        13.3260   31.3900   63.4010 C.3     0  <0>0        0.0000
     17  S2         6.9590   37.5460   55.7020 S.3     0  <0>0       -0.0748
     18  C13        5.4270   36.5730   55.7030 C.3     0  <0>0        0.0772
@<TRIPOS>BOND
     1    17    18    1
     2    17     8    1
     3     8     7    1
     4     8     9    2
     5     7     5    1
     6     9     4    2
     7     5     4    1
     8     5     6    2
     9     4     3    1
    10     6     1    1
    11     3     2    2
    12     1     2    1
    13     1    10    1
    14    10    11    1
    15    10    12    1
    16    12    13    1
    17    14    13    1
    18    15    13    1
    19    15    16    1
