@<TRIPOS>MOLECULE
ZINC13616703_replica-1.pdb
 28 32 0 0 0
SMALL
GASTEIGER

@<TRIPOS>ATOM
      1  C9         1.5330   34.5000   57.5760 C.3     0  <0>0        0.2834
      2  N1         1.2660   33.0860   57.2850 N.pl3   0  <0>0       -0.1912
      3  C10        1.4770   32.0470   58.3190 C.3     0  <0>0        0.1262
      4  C11        0.7220   30.8300   57.7690 C.3     0  <0>0        0.0740
      5  C12        0.4000   31.2230   56.3420 C.2     0  <0>0        0.0842
      6  N2         0.7330   32.4610   56.1500 N.2     0  <0>0       -0.1826
      7  C17        0.8520   32.5740   59.5840 C.ar    0  <0>0        0.0323
      8  C18        0.6060   31.7030   60.6290 C.ar    0  <0>0        0.0071
      9  C19        0.0710   32.1700   61.8150 C.ar    0  <0>0        0.0345
     10  C20       -0.2190   33.5160   61.9530 C.ar    0  <0>0        0.0098
     11  C21        0.0170   34.3850   60.9110 C.ar    0  <0>0        0.0372
     12  C22        0.5490   33.9220   59.7070 C.ar    0  <0>0        0.1386
     13  O2         0.7340   34.8310   58.7160 O.3     0  <0>0       -0.4553
     14 Br         -0.2640   30.9740   63.2420 Br      0  <0>0       -0.0490
     15  C6         2.9930   34.6970   57.8920 C.ar    0  <0>0        0.0389
     16  C5         3.3770   35.6380   58.8280 C.ar    0  <0>0        0.0041
     17  C4         4.7150   35.8200   59.1190 C.ar    0  <0>0        0.0367
     18  C3         5.6740   35.0570   58.4700 C.ar    0  <0>0        0.1385
     19  C8         5.2870   34.1130   57.5310 C.ar    0  <0>0        0.0367
     20  C7         3.9480   33.9310   57.2470 C.ar    0  <0>0        0.0041
     21  O1         6.9910   35.2350   58.7540 O.3     0  <0>0       -0.4755
     22  C2         7.8390   35.6370   57.6760 C.3     0  <0>0        0.2055
     23  C1         8.5490   36.9410   58.0450 C.3     0  <0>0        0.0512
     24  C13       -0.1980   30.3410   55.3330 C.ar    0  <0>0        0.0446
     25  S1         0.0480   28.5900   55.0810 S.2     0  <0>0       -0.0852
     26  C16       -1.0420   28.3780   53.6830 C.ar    0  <0>0        0.0355
     27  C15       -1.5180   29.6350   53.4960 C.ar    0  <0>0        0.0075
     28  C14       -1.1020   30.6470   54.3320 C.ar    0  <0>0        0.0082
@<TRIPOS>BOND
     1    27    26   ar
     2    27    28   ar
     3    26    25   ar
     4    28    24   ar
     5    25    24   ar
     6    24     5    1
     7     6     5    2
     8     6     2    1
     9     5     4    1
    10    20    19   ar
    11    20    15   ar
    12     2     1    1
    13     2     3    1
    14    19    18   ar
    15     1    15    1
    16     1    13    1
    17    22    23    1
    18    22    21    1
    19     4     3    1
    20    15    16   ar
    21     3     7    1
    22    18    21    1
    23    18    17   ar
    24    13    12    1
    25    16    17   ar
    26     7    12   ar
    27     7     8   ar
    28    12    11   ar
    29     8     9   ar
    30    11    10   ar
    31     9    10   ar
    32     9    14    1
