@<TRIPOS>MOLECULE
ZINC16852604_replica-1.pdb
 28 31 0 0 0
SMALL
GASTEIGER

@<TRIPOS>ATOM
      1  C1         1.0550   34.3210   59.0330 C.2     0  <0>0       -0.0036
      2  C2         0.9660   34.7260   57.7070 C.2     0  <0>0        0.0020
      3  C3         0.5840   33.8530   56.7290 C.2     0  <0>0        0.0284
      4  C4         0.2760   32.5290   57.0600 C.2     0  <0>0        0.1231
      5  C5         0.3660   32.1150   58.4090 C.3     0  <0>0        0.1514
      6  C6         0.7580   33.0230   59.3910 C.2     0  <0>0       -0.0103
      7  C7         0.0370   30.7190   58.7330 C.2     0  <0>0        0.2453
      8  O1         0.0970   30.3060   59.8760 O.2     0  <0>0       -0.2733
      9  N1        -0.3400   29.9130   57.7130 N.am    0  <0>0       -0.2117
     10  C8        -0.3960   30.3970   56.4290 C.2     0  <0>0        0.1924
     11  N2        -0.1050   31.6410   56.1230 N.2     0  <0>0       -0.3898
     12  C9        -0.8020   29.4880   55.3570 C.2     0  <0>0        0.0484
     13  C10        0.1140   28.6960   54.7620 C.2     0  <0>0        0.0040
     14  C11       -0.2950   27.7820   53.6840 C.ar    0  <0>0        0.0003
     15  C16        0.1270   26.4490   53.6970 C.ar    0  <0>0        0.0031
     16  C15       -0.2570   25.5970   52.6850 C.ar    0  <0>0        0.0366
     17  C14       -1.0620   26.0610   51.6520 C.ar    0  <0>0        0.1337
     18  C13       -1.4840   27.3860   51.6340 C.ar    0  <0>0        0.0366
     19  C12       -1.1090   28.2430   52.6440 C.ar    0  <0>0        0.0031
     20  O2        -1.4380   25.2180   50.6560 O.3     0  <0>0       -0.5055
     21  H11       -2.3250   25.3890   50.3100 H       0  <0>0        0.2922
     22  C17       -0.6690   28.5760   57.9680 C.ar    0  <0>0        0.0604
     23  C22        0.3320   27.6140   58.0330 C.ar    0  <0>0        0.0162
     24  C21        0.0050   26.2970   58.2840 C.ar    0  <0>0        0.0127
     25  C20       -1.3170   25.9330   58.4730 C.ar    0  <0>0        0.0578
     26  C19       -2.3150   26.8890   58.4100 C.ar    0  <0>0        0.0127
     27 Cl         -1.7230   24.2750   58.7900 Cl      0  <0>0       -0.0822
     28  C18       -1.9940   28.2100   58.1630 C.ar    0  <0>0        0.0162
@<TRIPOS>BOND
     1    21    20    1
     2    20    17    1
     3    18    17   ar
     4    18    19   ar
     5    17    16   ar
     6    19    14   ar
     7    16    15   ar
     8    14    15   ar
     9    14    13    1
    10    13    12    2
    11    12    10    1
    12    11    10    2
    13    11     4    2
    14    10     9    1
    15     3     4    1
    16     3     2    2
    17     4     5    1
    18     2     1    1
    19     9    22    1
    20     9     7   am
    21    22    23   ar
    22    22    28   ar
    23    23    24   ar
    24    28    26   ar
    25    24    25   ar
    26     5     7    1
    27     5     6    1
    28    26    25   ar
    29    25    27    1
    30     7     8    2
    31     1     6    2
