@<TRIPOS>MOLECULE
ZINC57685740_replica-1.pdb
 21 22 0 0 0
SMALL
GASTEIGER

@<TRIPOS>ATOM
      1  C10       12.0310   34.5610   61.7960 C.3     0  <0>0        0.1172
      2  C11       11.9500   35.6720   62.7580 C.1     0  <0>0        0.0767
      3  N1        11.8870   36.5290   63.5010 N.1     0  <0>0       -0.1956
      4  C9        10.7110   34.4510   61.0310 C.3     0  <0>0        0.0669
      5  C8        10.3740   35.8040   60.3990 C.3     0  <0>0        0.2068
      6  O2         9.0420   35.7690   59.8840 O.3     0  <0>0       -0.4753
      7  C6         8.7550   36.6160   58.8600 C.ar    0  <0>0        0.1416
      8  C5         8.6610   37.9800   59.0920 C.ar    0  <0>0        0.0371
      9  C4         8.3680   38.8410   58.0510 C.ar    0  <0>0        0.0062
     10  C3         8.1710   38.3450   56.7760 C.ar    0  <0>0        0.0371
     11  C2         8.2650   36.9820   56.5390 C.ar    0  <0>0        0.1418
     12  C7         8.5520   36.1150   57.5820 C.ar    0  <0>0        0.0737
     13  O1         8.0710   36.4940   55.2850 O.3     0  <0>0       -0.4713
     14  C1         6.8470   35.7980   55.0410 C.3     0  <0>0        0.2525
     15  C12       12.2920   33.2750   62.5350 C.ar    0  <0>0       -0.0081
     16  C17       13.5760   32.9570   62.9370 C.ar    0  <0>0       -0.0010
     17  C16       13.8170   31.7790   63.6200 C.ar    0  <0>0        0.0293
     18  C15       12.7730   30.9120   63.8910 C.ar    0  <0>0        0.1401
     19  C14       11.4870   31.2290   63.4830 C.ar    0  <0>0        0.0293
     20  F1        13.0060   29.7580   64.5540 F       0  <0>0       -0.2042
     21  C13       11.2480   32.4090   62.8060 C.ar    0  <0>0       -0.0010
@<TRIPOS>BOND
     1    14    13    1
     2    13    11    1
     3    11    10   ar
     4    11    12   ar
     5    10     9   ar
     6    12     7   ar
     7     9     8   ar
     8     7     8   ar
     9     7     6    1
    10     6     5    1
    11     5     4    1
    12     4     1    1
    13     1    15    1
    14     1     2    1
    15    15    21   ar
    16    15    16   ar
    17     2     3    3
    18    21    19   ar
    19    16    17   ar
    20    19    18   ar
    21    17    18   ar
    22    18    20    1
