@<TRIPOS>MOLECULE
ZINC14456490_replica-1.pdb
 33 37 0 0 0
SMALL
GASTEIGER

@<TRIPOS>ATOM
      1  C9        -1.0340   30.4890   56.6770 C.ar    0  <0>0        0.1249
      2  C10       -0.6880   29.6520   57.7230 C.ar    0  <0>0        0.0214
      3  C11       -0.0420   30.1680   58.8270 C.ar    0  <0>0        0.0154
      4  C12        0.2600   31.5220   58.8860 C.ar    0  <0>0        0.0408
      5  C13       -0.0840   32.3660   57.8410 C.ar    0  <0>0       -0.0080
      6  C14       -0.7340   31.8350   56.7350 C.ar    0  <0>0        0.0171
      7  C15        0.2210   33.8300   57.8610 C.3     0  <0>0        0.0255
      8  C16        1.3790   34.1640   56.9500 C.3     0  <0>0        0.0045
      9  C17        2.1090   35.1170   57.4750 C.3     0  <0>0        0.0004
     10  C18        1.5330   35.5530   58.8090 C.3     0  <0>0        0.0023
     11  C19        0.6700   34.3330   59.2460 C.3     0  <0>0        0.0267
     12  C20        1.6140   33.3150   59.8910 C.3     0  <0>0        0.0981
     13  N2         0.9160   32.0300   60.0130 N.pl3   0  <0>0       -0.3305
     14  H21        0.9110   31.5460   60.8530 H       0  <0>0        0.1471
     15  S1        -1.8590   29.8350   55.2660 S.O2    0  <0>0        0.0736
     16  O1        -2.3830   28.5710   55.6500 O.2     0  <0>0       -0.1499
     17  O2        -2.6820   30.8760   54.7570 O.2     0  <0>0       -0.1499
     18  N1        -0.7050   29.5380   54.1160 N.pl3   0  <0>0       -0.2153
     19  H13       -0.0340   30.2100   53.9180 H       0  <0>0        0.1737
     20  C5        -0.6980   28.3210   53.4320 C.ar    0  <0>0        0.0608
     21  C4        -1.3900   28.1910   52.2340 C.ar    0  <0>0        0.0152
     22  C3        -1.3780   26.9870   51.5580 C.ar    0  <0>0       -0.0030
     23  C2        -0.6850   25.9080   52.0760 C.ar    0  <0>0       -0.0221
     24  C1        -0.6790   24.5950   51.3380 C.3     0  <0>0        0.0310
     25  C7         0.0010   26.0320   53.2700 C.ar    0  <0>0       -0.0073
     26  C6        -0.0040   27.2350   53.9500 C.ar    0  <0>0       -0.0075
     27  C8         0.7440   27.3680   55.2510 C.3     0  <0>0        0.0324
     28  C21        2.8380   33.1450   59.0290 C.ar    0  <0>0        0.0247
     29  S2         4.3070   34.1580   58.9480 S.2     0  <0>0       -0.0940
     30  C24        5.1830   33.2310   57.7000 C.ar    0  <0>0        0.0074
     31  C23        4.3120   32.2270   57.4310 C.ar    0  <0>0        0.0024
     32  C25        6.5400   33.4950   57.0990 C.3     0  <0>0        0.0381
     33  C22        3.1130   32.1810   58.1170 C.ar    0  <0>0        0.0039
@<TRIPOS>BOND
     1    24    23    1
     2    22    23   ar
     3    22    21   ar
     4    23    25   ar
     5    21    20   ar
     6    25    26   ar
     7    20    26   ar
     8    20    18    1
     9    19    18    1
    10    26    27    1
    11    18    15    1
    12    17    15    2
    13    15    16    2
    14    15     1    1
    15     1     6   ar
    16     1     2   ar
    17     6     5   ar
    18     8     9    1
    19     8     7    1
    20    32    30    1
    21    31    30   ar
    22    31    33   ar
    23     9    10    1
    24    30    29   ar
    25     2     3   ar
    26     5     7    1
    27     5     4   ar
    28     7    11    1
    29    33    28   ar
    30    10    11    1
    31     3     4   ar
    32     4    13    1
    33    29    28   ar
    34    28    12    1
    35    11    12    1
    36    12    13    1
    37    13    14    1
