@<TRIPOS>MOLECULE
ZINC41494829_replica-1.pdb
 24 27 0 0 0
SMALL
GASTEIGER

@<TRIPOS>ATOM
      1  C1         7.5990   37.9430   55.8550 C.ar    0  <0>0        0.0208
      2  C2         8.0600   37.9900   57.1520 C.ar    0  <0>0        0.0048
      3  C3         8.4560   36.7900   57.7820 C.ar    0  <0>0        0.0383
      4  C4         8.9760   36.6190   59.1530 C.2     0  <0>0        0.0819
      5  C5         9.2940   35.3090   59.5280 C.3     0  <0>0        0.1980
      6  C6         9.7920   35.0290   60.7940 C.2     0  <0>0        0.3141
      7  N1         9.9580   36.0420   61.6450 N.2     0  <0>0       -0.0395
      8  C7         9.6520   37.2720   61.2750 C.3     0  <0>0        0.3912
      9  N2         9.1820   37.5710   60.0910 N.2     0  <0>0       -0.2215
     10  S1         8.9160   34.3290   58.1010 S.3     0  <0>0       -0.0775
     11  C14        8.3440   35.6150   57.0170 C.ar    0  <0>0        0.1086
     12  N4         7.8970   35.6160   55.7790 N.ar    0  <0>0       -0.2376
     13  C15        7.5260   36.7330   55.1840 C.ar    0  <0>0        0.0994
     14  N3        10.1070   33.7310   61.1640 N.pl3   0  <0>0       -0.2000
     15  H4         9.4890   33.0080   60.9700 H       0  <0>0        0.2983
     16  C8        11.3160   33.4630   61.8180 C.ar    0  <0>0        0.1655
     17  C13       11.4180   32.3700   62.6710 C.ar    0  <0>0        0.2061
     18  C12       12.6160   32.1030   63.3110 C.ar    0  <0>0        0.1980
     19  F1        10.3510   31.5650   62.8710 F       0  <0>0       -0.1981
     20  C11       13.7080   32.9340   63.1110 C.ar    0  <0>0        0.1699
     21  F2        12.7200   31.0380   64.1360 F       0  <0>0       -0.1993
     22  C10       13.6040   34.0260   62.2650 C.ar    0  <0>0        0.0356
     23  F3        14.8760   32.6770   63.7410 F       0  <0>0       -0.2017
     24  C9        12.4120   34.2910   61.6200 C.ar    0  <0>0        0.0449
@<TRIPOS>BOND
     1    13    12   ar
     2    13     1   ar
     3    12    11   ar
     4     1     2   ar
     5    11     3   ar
     6    11    10    1
     7     2     3   ar
     8     3     4    1
     9    10     5    1
    10     4     5    1
    11     4     9    2
    12     5     6    1
    13     9     8    1
    14     6    14    1
    15     6     7    2
    16    15    14    1
    17    14    16    1
    18     8     7    1
    19    24    16   ar
    20    24    22   ar
    21    16    17   ar
    22    22    20   ar
    23    17    19    1
    24    17    18   ar
    25    20    18   ar
    26    20    23    1
    27    18    21    1
