@<TRIPOS>MOLECULE
ZINC36918818_replica-1.pdb
 22 22 0 0 0
SMALL
GASTEIGER

@<TRIPOS>ATOM
      1  C10        9.9720   35.4920   59.8520 C.ar    0  <0>0        0.0449
      2  C11        9.7130   36.6940   60.5030 C.ar    0  <0>0        0.0152
      3  C12       10.3330   36.9840   61.7030 C.ar    0  <0>0        0.0129
      4  C13       11.2150   36.0810   62.2660 C.ar    0  <0>0        0.0640
      5  C14       11.4840   34.8710   61.6200 C.ar    0  <0>0        0.0874
      6  C15       10.8520   34.5780   60.4100 C.ar    0  <0>0        0.0216
      7 Cl         11.9920   36.4520   63.7730 Cl      0  <0>0       -0.0820
      8  N1         9.3430   35.2050   58.6390 N.pl3   0  <0>0       -0.3340
      9  H20        9.6510   34.4630   58.0950 H       0  <0>0        0.1468
     10  C5         8.2160   36.0250   58.1860 C.3     0  <0>0        0.0690
     11  C4         8.2560   36.1490   56.6610 C.3     0  <0>0        0.0195
     12  C2         8.3040   37.6280   56.2720 C.3     0  <0>0        0.0016
     13  C1         6.9570   38.0410   55.6730 C.3     0  <0>0        0.0001
     14  C3         8.5910   38.4730   57.5140 C.3     0  <0>0        0.0001
     15  C6         6.9020   35.3650   58.6090 C.3     0  <0>0        0.0195
     16  C7         5.8440   36.4430   58.8530 C.3     0  <0>0        0.0016
     17  C8         4.4510   35.8160   58.7810 C.3     0  <0>0        0.0001
     18  C9         6.0560   37.0620   60.2360 C.3     0  <0>0        0.0001
     19  C16       12.4260   33.9050   62.2170 C.2     0  <0>0        0.3422
     20  O1        12.0090   33.0030   62.9150 O.2     0  <0>0       -0.2449
     21  O2        13.7480   34.0230   61.9880 O.3     0  <0>0       -0.4413
     22  C17       14.6280   33.4310   62.9470 C.3     0  <0>0        0.2560
@<TRIPOS>BOND
     1    13    12    1
     2    12    11    1
     3    12    14    1
     4    11    10    1
     5     9     8    1
     6    10    15    1
     7    10     8    1
     8    15    16    1
     9     8     1    1
    10    17    16    1
    11    16    18    1
    12     1     6   ar
    13     1     2   ar
    14     6     5   ar
    15     2     3   ar
    16     5    19    1
    17     5     4   ar
    18     3     4   ar
    19    21    19    1
    20    21    22    1
    21    19    20    2
    22     4     7    1
