@<TRIPOS>MOLECULE
ZINC13745328_replica-1.pdb
 23 25 0 0 0
SMALL
GASTEIGER

@<TRIPOS>ATOM
      1  C6         0.5130   31.2800   56.9780 C.3     0  <0>0        0.0729
      2  N2         1.6040   31.7340   56.1100 N.am    0  <0>0       -0.2906
      3  C5         2.2000   32.9190   56.3430 C.2     0  <0>0        0.3007
      4  N1         3.2030   33.3370   55.5460 N.am    0  <0>0       -0.2906
      5  O1         1.8350   33.6120   57.2740 O.2     0  <0>0       -0.2528
      6  H11        3.4950   32.7850   54.8030 H       0  <0>0        0.1509
      7  H12        1.8950   31.1810   55.3680 H       0  <0>0        0.1509
      8  C3         3.8530   34.6250   55.7990 C.3     0  <0>0        0.0731
      9  C4         5.2200   34.3890   56.4430 C.3     0  <0>0        0.0213
     10  C2         4.0340   35.3740   54.4770 C.3     0  <0>0        0.0196
     11  C1         5.0260   34.6150   53.5920 C.3     0  <0>0        0.0017
     12  C7         1.0730   30.3500   58.0560 C.3     0  <0>0        0.0196
     13  C8         0.8400   30.9700   59.4350 C.3     0  <0>0        0.0017
     14  C9        -0.5230   30.5260   56.1420 C.3     0  <0>0        0.0166
     15  C14       -1.8850   31.2120   56.2780 C.3     0  <0>0        0.0016
     16  C13       -2.9210   30.4580   55.4430 C.3     0  <0>0        0.0001
     17  C12       -3.0250   29.0140   55.9400 C.3     0  <0>0        0.0000
     18  C15       -2.4930   30.4610   53.9740 C.3     0  <0>0        0.0000
     19  C11       -1.6630   28.3290   55.8040 C.3     0  <0>0        0.0001
     20  C10       -0.6270   29.0820   56.6390 C.3     0  <0>0        0.0016
     21  C17       -1.2350   28.3330   54.3350 C.3     0  <0>0        0.0000
     22  C16       -1.1320   29.7770   53.8370 C.3     0  <0>0        0.0001
     23  C18       -0.0960   30.5300   54.6730 C.3     0  <0>0        0.0016
@<TRIPOS>BOND
     1    11    10    1
     2    22    18    1
     3    22    21    1
     4    22    23    1
     5    18    16    1
     6    21    19    1
     7    10     8    1
     8    23    14    1
     9     6     4    1
    10     7     2    1
    11    16    17    1
    12    16    15    1
    13     4     8    1
    14     4     3   am
    15     8     9    1
    16    19    17    1
    17    19    20    1
    18     2     3   am
    19     2     1    1
    20    14    15    1
    21    14    20    1
    22    14     1    1
    23     3     5    2
    24     1    12    1
    25    12    13    1
