@<TRIPOS>MOLECULE
ZINC55050966_replica-1.pdb
 24 27 0 0 0
SMALL
GASTEIGER

@<TRIPOS>ATOM
      1  C7         7.5030   34.5960   58.7250 C.2     0  <0>0        0.2105
      2  N2         8.6010   34.5560   59.4570 N.2     0  <0>0       -0.3843
      3  C8         8.8330   33.5490   60.2960 C.2     0  <0>0        0.1225
      4  C9         7.9180   32.5420   60.4000 C.3     0  <0>0        0.1247
      5  S1         6.6780   33.0940   59.2360 S.3     0  <0>0       -0.0594
      6  C10       10.0740   33.5220   61.1090 C.ar    0  <0>0        0.0261
      7  C15       10.3530   32.4240   61.9200 C.ar    0  <0>0       -0.0008
      8  C14       11.5090   32.3980   62.6700 C.ar    0  <0>0       -0.0081
      9  C13       12.3910   33.4720   62.6280 C.ar    0  <0>0        0.0463
     10  C16       11.8160   31.2100   63.5450 C.3     0  <0>0        0.0372
     11  C12       12.1110   34.5700   61.8250 C.ar    0  <0>0        0.0144
     12  N3        13.5590   33.4440   63.3960 N.am    0  <0>0       -0.2842
     13  C11       10.9590   34.5980   61.0680 C.ar    0  <0>0        0.0035
     14  C18       14.0320   32.2800   63.8760 C.2     0  <0>0        0.2264
     15  H21       14.0320   34.2710   63.5830 H       0  <0>0        0.1548
     16  C17       13.3280   30.9830   63.5850 C.3     0  <0>0        0.0901
     17  O1        15.0400   32.2760   64.5520 O.2     0  <0>0       -0.2748
     18  N1         7.0930   35.5520   57.8090 N.pl3   0  <0>0       -0.2787
     19  C5         6.3030   35.1680   56.6310 C.3     0  <0>0        0.0936
     20  C4         7.0010   35.7020   55.3760 C.3     0  <0>0        0.0216
     21  C3         7.2210   37.2100   55.5220 C.3     0  <0>0        0.0035
     22  C2         8.1230   37.4810   56.7270 C.3     0  <0>0        0.0199
     23  C1         8.3700   38.9860   56.8520 C.3     0  <0>0        0.0018
     24  C6         7.4400   36.9670   57.9990 C.3     0  <0>0        0.0935
@<TRIPOS>BOND
     1    20    21    1
     2    20    19    1
     3    21    22    1
     4    19    18    1
     5    22    23    1
     6    22    24    1
     7    18    24    1
     8    18     1    1
     9     1     5    1
    10     1     2    2
    11     5     4    1
    12     2     3    2
    13     3     4    1
    14     3     6    1
    15    13     6   ar
    16    13    11   ar
    17     6     7   ar
    18    11     9   ar
    19     7     8   ar
    20     9     8   ar
    21     9    12    1
    22     8    10    1
    23    12    15    1
    24    12    14   am
    25    10    16    1
    26    16    14    1
    27    14    17    2
