@<TRIPOS>MOLECULE
ZINC05630536_replica-1.pdb
 27 30 0 0 0
SMALL
GASTEIGER

@<TRIPOS>ATOM
      1  C11        4.6770   35.8920   56.5160 C.2     0  <0>0        0.2670
      2  O4         3.8000   35.6930   55.7010 O.2     0  <0>0       -0.2711
      3  N1         4.5090   35.5000   57.7950 N.am    0  <0>0       -0.3044
      4  H12        5.2090   35.6590   58.4470 H       0  <0>0        0.1494
      5  C10        5.9520   36.5790   56.1000 C.3     0  <0>0        0.2927
      6  O3         6.7130   36.9410   57.2830 O.3     0  <0>0       -0.4353
      7  C9         8.0520   36.8050   57.2130 C.2     0  <0>0        0.3417
      8  O2         8.6210   36.9300   56.1470 O.2     0  <0>0       -0.2449
      9  C6         8.8270   36.5030   58.4320 C.ar    0  <0>0        0.0759
     10  C5         8.9030   37.4430   59.4640 C.ar    0  <0>0        0.0096
     11  C4         9.6270   37.1570   60.6000 C.ar    0  <0>0        0.0371
     12  C3        10.2820   35.9360   60.7200 C.ar    0  <0>0        0.1386
     13  C8        10.2090   35.0000   59.6950 C.ar    0  <0>0        0.0371
     14  C7         9.4870   35.2770   58.5560 C.ar    0  <0>0        0.0096
     15  O1        10.9950   35.6580   61.8410 O.3     0  <0>0       -0.4755
     16  C2        11.8600   34.5220   61.7950 C.3     0  <0>0        0.2055
     17  C1        12.6720   34.4460   63.0890 C.3     0  <0>0        0.0512
     18  C12        3.2690   34.8330   58.1990 C.3     0  <0>0        0.0568
     19  C17        3.3840   34.3830   59.6570 C.3     0  <0>0        0.0180
     20  C16        2.0890   33.6860   60.0800 C.3     0  <0>0        0.0016
     21  C15        0.9170   34.6580   59.9380 C.3     0  <0>0        0.0001
     22  C18        1.8510   32.4660   59.1860 C.3     0  <0>0        0.0001
     23  C14        0.8010   35.1080   58.4800 C.3     0  <0>0        0.0016
     24  C13        2.0960   35.8050   58.0570 C.3     0  <0>0        0.0180
     25  C20        0.5630   33.8880   57.5870 C.3     0  <0>0        0.0001
     26  C19        1.7360   32.9160   57.7290 C.3     0  <0>0        0.0016
     27  C21        3.0310   33.6120   57.3060 C.3     0  <0>0        0.0180
@<TRIPOS>BOND
     1     2     1    2
     2     5     1    1
     3     5     6    1
     4     8     7    2
     5     1     3   am
     6     7     6    1
     7     7     9    1
     8    27    26    1
     9    27    18    1
    10    25    26    1
    11    25    23    1
    12    26    22    1
    13     3    18    1
    14     3     4    1
    15    24    18    1
    16    24    23    1
    17    18    19    1
    18     9    14   ar
    19     9    10   ar
    20    23    21    1
    21    14    13   ar
    22    22    20    1
    23    10    11   ar
    24    19    20    1
    25    13    12   ar
    26    21    20    1
    27    11    12   ar
    28    12    15    1
    29    16    15    1
    30    16    17    1
