@<TRIPOS>MOLECULE
ZINC08731280_replica-1.pdb
 23 24 0 0 0
SMALL
GASTEIGER

@<TRIPOS>ATOM
      1  N1         8.0440   35.6180   57.5160 N.pl3   0  <0>0       -0.3324
      2  H11        7.0850   35.4990   57.5970 H       0  <0>0        0.1468
      3  C9         8.6760   35.5980   56.1950 C.3     0  <0>0        0.0909
      4  C8         7.7960   36.3550   55.1980 C.3     0  <0>0        0.0685
      5  C7         6.3510   35.8700   55.3230 C.3     0  <0>0        0.2072
      6  O1         5.6930   36.5960   56.3630 O.3     0  <0>0       -0.4754
      7  C6         4.5360   36.0710   56.8470 C.ar    0  <0>0        0.1386
      8  C1         3.5070   35.7410   55.9780 C.ar    0  <0>0        0.0374
      9  C2         2.3340   35.2020   56.4700 C.ar    0  <0>0        0.0098
     10  C3         2.1820   35.0010   57.8300 C.ar    0  <0>0        0.0348
     11  C4         3.2050   35.3360   58.7000 C.ar    0  <0>0        0.0098
     12 Br          0.5730   34.2700   58.5030 Br      0  <0>0       -0.0490
     13  C5         4.3810   35.8700   58.2100 C.ar    0  <0>0        0.0374
     14  C10        8.8190   35.8060   58.6540 C.ar    0  <0>0        0.0511
     15  C15        8.6920   36.9840   59.4080 C.ar    0  <0>0        0.0937
     16  C14        9.4820   37.1640   60.5460 C.ar    0  <0>0        0.0192
     17  C13       10.3780   36.1860   60.9220 C.ar    0  <0>0        0.0580
     18  C12       10.5010   35.0240   60.1750 C.ar    0  <0>0        0.0127
     19 Cl         11.3590   36.4120   62.3360 Cl      0  <0>0       -0.0822
     20  C11        9.7290   34.8320   59.0480 C.ar    0  <0>0        0.0154
     21  C16        7.7310   38.0240   59.0000 C.2     0  <0>0        0.3890
     22  O2         6.7360   38.2280   59.6670 O.co2   0  <0>0       -0.2405
     23  O3         7.9550   38.7480   57.8850 O.co2   0  <0>0       -0.2405
@<TRIPOS>BOND
     1     4     5    1
     2     4     3    1
     3     5     6    1
     4     8     9   ar
     5     8     7   ar
     6     3     1    1
     7     6     7    1
     8     9    10   ar
     9     7    13   ar
    10     1     2    1
    11     1    14    1
    12    10    12    1
    13    10    11   ar
    14    23    21   ar
    15    13    11   ar
    16    14    20   ar
    17    14    15   ar
    18    21    15    1
    19    21    22   ar
    20    20    18   ar
    21    15    16   ar
    22    18    17   ar
    23    16    17   ar
    24    17    19    1
