@<TRIPOS>MOLECULE
ZINC12488079_replica-1.pdb
 29 32 0 0 0
SMALL
GASTEIGER

@<TRIPOS>ATOM
      1  C7         5.7410   35.9250   58.6870 C.2     0  <0>0        0.1269
      2  C8         6.0310   35.0850   59.7710 C.3     0  <0>0        0.1486
      3  S1         4.4580   34.2690   59.9830 S.3     0  <0>0       -0.0546
      4  C9         3.6210   35.0330   58.7400 C.2     0  <0>0        0.2110
      5  N1         4.5090   35.8550   58.2180 N.2     0  <0>0       -0.3840
      6  C14        7.2330   34.9280   60.4910 C.2     0  <0>0        0.0905
      7  N3         8.2590   34.3330   59.9320 N.2     0  <0>0       -0.2472
      8  C15        9.4250   34.1800   60.6290 C.ar    0  <0>0        0.0810
      9  C20       10.3220   35.2470   60.7390 C.ar    0  <0>0        0.0190
     10  C19       11.4940   35.0860   61.4480 C.ar    0  <0>0        0.0054
     11  C18       11.7880   33.8710   62.0390 C.ar    0  <0>0        0.0715
     12  C17       10.9070   32.8090   61.9300 C.ar    0  <0>0        0.0054
     13  C16        9.7280   32.9550   61.2290 C.ar    0  <0>0        0.0190
     14  C21       13.0730   33.7020   62.8070 C.3     0  <0>0        0.4186
     15  F1        13.0840   34.5800   63.8970 F       0  <0>0       -0.1659
     16  F2        13.1710   32.3850   63.2700 F       0  <0>0       -0.1659
     17  F3        14.1590   33.9830   61.9700 F       0  <0>0       -0.1659
     18  C4         6.7510   36.8410   58.1080 C.ar    0  <0>0        0.0267
     19  C3         7.1610   37.9710   58.8170 C.ar    0  <0>0        0.0022
     20  C2         8.1010   38.8190   58.2720 C.ar    0  <0>0        0.0001
     21  C1         8.6380   38.5530   57.0240 C.ar    0  <0>0        0.0000
     22  C6         8.2360   37.4340   56.3170 C.ar    0  <0>0        0.0001
     23  C5         7.2960   36.5780   56.8500 C.ar    0  <0>0        0.0022
     24  N2         2.3100   34.8450   58.3570 N.pl3   0  <0>0       -0.2735
     25  C13        1.2080   35.0250   59.3150 C.3     0  <0>0        0.1257
     26  C12        0.3050   33.7920   59.2580 C.3     0  <0>0        0.1637
     27  O1        -0.0670   33.5440   57.9000 O.3     0  <0>0       -0.3501
     28  C11        1.0320   33.2450   57.0370 C.3     0  <0>0        0.1637
     29  C10        1.9710   34.4550   56.9790 C.3     0  <0>0        0.1257
@<TRIPOS>BOND
     1    22    23   ar
     2    22    21   ar
     3    23    18   ar
     4    29    28    1
     5    29    24    1
     6    21    20   ar
     7    28    27    1
     8    27    26    1
     9    18     1    1
    10    18    19   ar
    11     5     1    2
    12     5     4    2
    13    20    19   ar
    14    24     4    1
    15    24    25    1
    16     1     2    1
    17     4     3    1
    18    26    25    1
    19     2     3    1
    20     2     6    1
    21     7     6    2
    22     7     8    1
    23     8     9   ar
    24     8    13   ar
    25     9    10   ar
    26    13    12   ar
    27    10    11   ar
    28    12    11   ar
    29    17    14    1
    30    11    14    1
    31    14    16    1
    32    14    15    1
