@<TRIPOS>MOLECULE
ZINC21250647_replica-1.pdb
 36 40 0 0 0
SMALL
GASTEIGER

@<TRIPOS>ATOM
      1  C11        8.4350   36.0470   60.4320 C.3     0  <0>0        0.0356
      2  C12        7.4170   34.9390   60.6950 C.3     0  <0>0        0.0458
      3  C13        6.1030   35.2670   60.0080 C.2     0  <0>0        0.0262
      4  C14        6.0920   35.9460   58.8480 C.2     0  <0>0        0.0437
      5  C15        4.8660   36.3160   58.0480 C.3     0  <0>0        0.1208
      6  N1         3.6140   36.1170   58.7460 N.pl3   0  <0>0       -0.3261
      7  C16        3.1910   34.8410   59.1200 C.ar    0  <0>0        0.0586
      8  C17        2.0880   34.2440   58.5320 C.ar    0  <0>0        0.0156
      9  C18        1.7710   32.9360   58.8550 C.ar    0  <0>0        0.0013
     10  C19        2.5440   32.2300   59.7570 C.ar    0  <0>0        0.0014
     11  C20        3.6350   32.8300   60.3620 C.ar    0  <0>0        0.0158
     12  C21        3.9440   34.1440   60.0530 C.ar    0  <0>0        0.0614
     13  N2         4.9970   34.8210   60.6560 N.pl3   0  <0>0       -0.3150
     14  C28        7.3060   36.3870   58.2700 C.2     0  <0>0        0.1722
     15  O2         7.2680   36.9850   57.2130 O.2     0  <0>0       -0.2916
     16  C29        8.6370   36.1430   58.9150 C.3     0  <0>0        0.0736
     17  H18        2.9770   36.9800   58.9910 H       0  <0>0        0.1474
     18  H23        4.8900   34.9880   61.7390 H       0  <0>0        0.1520
     19  C8         9.7420   35.7100   61.1010 C.ar    0  <0>0       -0.0215
     20  C7        10.3160   34.4660   60.9080 C.ar    0  <0>0       -0.0011
     21  C6        11.5130   34.1550   61.5210 C.ar    0  <0>0        0.0366
     22  C5        12.1420   35.0890   62.3300 C.ar    0  <0>0        0.1385
     23  C10       11.5660   36.3370   62.5220 C.ar    0  <0>0        0.0366
     24  C9        10.3700   36.6460   61.9030 C.ar    0  <0>0       -0.0011
     25  O1        13.3200   34.7850   62.9340 O.3     0  <0>0       -0.4755
     26  C4        14.1870   33.8810   62.2460 C.3     0  <0>0        0.2053
     27  C2        14.8590   32.9490   63.2570 C.3     0  <0>0        0.0438
     28  C1        15.3320   33.7620   64.4630 C.3     0  <0>0        0.0038
     29  C3        13.8560   31.8890   63.7180 C.3     0  <0>0        0.0038
     30  C22        4.8480   35.4880   56.7890 C.ar    0  <0>0        0.0272
     31  C27        4.2180   35.9680   55.6540 C.ar    0  <0>0        0.1380
     32  C26        4.2050   35.2070   54.4970 C.ar    0  <0>0        0.0294
     33  F1         3.6170   37.1780   55.6740 F       0  <0>0       -0.2044
     34  C25        4.8150   33.9670   54.4790 C.ar    0  <0>0        0.0023
     35  C24        5.4410   33.4870   55.6160 C.ar    0  <0>0       -0.0001
     36  C23        5.4570   34.2470   56.7700 C.ar    0  <0>0       -0.0001
@<TRIPOS>BOND
     1    34    32   ar
     2    34    35   ar
     3    32    31   ar
     4    35    36   ar
     5    31    33    1
     6    31    30   ar
     7    36    30   ar
     8    30     5    1
     9    15    14    2
    10     5     6    1
    11     5     4    1
    12    14     4    1
    13    14    16    1
    14     8     9   ar
    15     8     7   ar
    16     6    17    1
    17     6     7    1
    18     4     3    2
    19     9    10   ar
    20    16     1    1
    21     7    12   ar
    22    10    11   ar
    23     3    13    1
    24     3     2    1
    25    12    11   ar
    26    12    13    1
    27     1     2    1
    28     1    19    1
    29    13    18    1
    30    20    19   ar
    31    20    21   ar
    32    19    24   ar
    33    21    22   ar
    34    24    23   ar
    35    26    25    1
    36    26    27    1
    37    22    23   ar
    38    22    25    1
    39    27    29    1
    40    27    28    1
