@<TRIPOS>MOLECULE
ZINC13183939_replica-1.pdb
 25 26 0 0 0
SMALL
GASTEIGER

@<TRIPOS>ATOM
      1  S2         0.9530   33.6850   57.0290 S.O2    0  <0>0        0.0602
      2  O1         0.7620   33.3170   58.3870 O.2     0  <0>0       -0.1530
      3  O2         0.6260   34.9770   56.5360 O.2     0  <0>0       -0.1530
      4  N1         0.0940   32.6010   56.1180 N.3     0  <0>0       -0.1785
      5  H12       -0.4950   32.9180   55.4160 H       0  <0>0        0.1488
      6  C9         0.2240   31.1640   56.3740 C.3     0  <0>0        0.1034
      7  C8        -1.0680   30.4550   55.9640 C.3     0  <0>0        0.0810
      8  S1        -1.3340   30.6660   54.1830 S.3     0  <0>0       -0.1122
      9  C5        -1.0690   29.0560   53.5170 C.ar    0  <0>0        0.0252
     10  C4        -1.6500   28.6980   52.3070 C.ar    0  <0>0        0.0058
     11  C3        -1.4400   27.4360   51.7890 C.ar    0  <0>0       -0.0038
     12  C2        -0.6510   26.5280   52.4730 C.ar    0  <0>0       -0.0218
     13  C1        -0.4240   25.1510   51.9040 C.3     0  <0>0        0.0310
     14  C7        -0.0720   26.8810   53.6780 C.ar    0  <0>0       -0.0038
     15  C6        -0.2730   28.1440   54.1990 C.ar    0  <0>0        0.0058
     16  C10        2.6600   33.4280   56.6730 C.ar    0  <0>0        0.1222
     17  C15        3.2790   34.1740   55.6940 C.ar    0  <0>0        0.0273
     18  C14        4.6300   33.9650   55.4080 C.ar    0  <0>0        0.0916
     19  C13        5.3480   33.0060   56.1280 C.ar    0  <0>0        0.0641
     20  C12        4.7160   32.2690   57.1090 C.ar    0  <0>0        0.0130
     21 Cl          7.0290   32.7420   55.7860 Cl      0  <0>0       -0.0820
     22  C11        3.3770   32.4780   57.3810 C.ar    0  <0>0        0.0208
     23  C16        5.2980   34.7580   54.3570 C.2     0  <0>0        0.3886
     24  O3         4.9680   34.6280   53.1960 O.co2   0  <0>0       -0.2405
     25  O4         6.2720   35.6280   54.6870 O.co2   0  <0>0       -0.2405
@<TRIPOS>BOND
     1    11    10   ar
     2    11    12   ar
     3    13    12    1
     4    10     9   ar
     5    12    14   ar
     6    24    23   ar
     7     9     8    1
     8     9    15   ar
     9    14    15   ar
    10     8     7    1
    11    23    25   ar
    12    23    18    1
    13    18    17   ar
    14    18    19   ar
    15     5     4    1
    16    17    16   ar
    17    21    19    1
    18     7     6    1
    19     4     6    1
    20     4     1    1
    21    19    20   ar
    22     3     1    2
    23    16     1    1
    24    16    22   ar
    25     1     2    2
    26    20    22   ar
