@<TRIPOS>MOLECULE
ZINC47387666_replica-1.pdb
 20 20 0 0 0
SMALL
GASTEIGER

@<TRIPOS>ATOM
      1  C7        11.3430   35.5920   61.9000 C.2     0  <0>0        0.2459
      2  O1        11.4700   36.4010   62.7980 O.2     0  <0>0       -0.2701
      3  N1        12.0050   34.4200   61.9480 N.am    0  <0>0       -0.3000
      4  H5        11.9040   33.7740   61.2320 H       0  <0>0        0.1498
      5  C6        10.4590   35.8950   60.7540 C.ar    0  <0>0        0.0535
      6  C1        10.3040   34.9660   59.7240 C.ar    0  <0>0        0.0062
      7  C2         9.4780   35.2540   58.6570 C.ar    0  <0>0        0.0242
      8  C3         8.8020   36.4610   58.6080 C.ar    0  <0>0        0.1429
      9  C4         8.9520   37.3860   59.6260 C.ar    0  <0>0        0.0242
     10  C5         9.7760   37.1110   60.6970 C.ar    0  <0>0        0.0062
     11  N2         7.9180   36.7640   57.4610 N.pl3   0  <0>0        0.0577
     12  O2         8.3670   37.3030   56.4760 O.2     0  <0>0       -0.1261
     13  O3         6.7460   36.4700   57.5080 O.2     0  <0>0       -0.1261
     14  C8        12.8800   34.1200   63.0850 C.3     0  <0>0        0.1016
     15  C9        13.2200   32.6280   63.0880 C.3     0  <0>0        0.0867
     16  S1        11.7060   31.6620   63.3410 S.3     0  <0>0       -0.0396
     17  C10       12.2990   30.0860   64.0150 C.3     0  <0>0        0.4438
     18  F1        11.2090   29.2410   64.2520 F       0  <0>0       -0.1602
     19  F2        13.1650   29.4820   63.0960 F       0  <0>0       -0.1602
     20  F3        12.9790   30.3170   65.2150 F       0  <0>0       -0.1602
@<TRIPOS>BOND
     1    12    11    2
     2    11    13    2
     3    11     8    1
     4     8     7   ar
     5     8     9   ar
     6     7     6   ar
     7     9    10   ar
     8     6     5   ar
     9    10     5   ar
    10     5     1    1
    11     4     3    1
    12     1     3   am
    13     1     2    2
    14     3    14    1
    15    14    15    1
    16    15    16    1
    17    19    17    1
    18    16    17    1
    19    17    18    1
    20    17    20    1
