@<TRIPOS>MOLECULE
ZINC37884605_replica-1.pdb
 22 23 0 0 0
SMALL
GASTEIGER

@<TRIPOS>ATOM
      1  N1         0.7980   30.7460   55.4000 N.pl3   0  <0>0       -0.3304
      2  H13        1.7070   31.0030   55.1810 H       0  <0>0        0.1469
      3  C8         0.1070   29.8540   54.5760 C.ar    0  <0>0        0.0444
      4  C7        -1.0590   30.2560   53.9370 C.ar    0  <0>0        0.0143
      5  C6        -1.7390   29.3720   53.1240 C.ar    0  <0>0        0.0009
      6  C5        -1.2610   28.0880   52.9430 C.ar    0  <0>0       -0.0042
      7  C4        -0.1000   27.6840   53.5770 C.ar    0  <0>0       -0.0213
      8  C9         0.5830   28.5610   54.3960 C.ar    0  <0>0        0.0100
      9  C2         0.4180   26.2830   53.3770 C.3     0  <0>0        0.0224
     10  C1         0.4710   25.5610   54.7260 C.3     0  <0>0        0.0047
     11  C3        -0.5130   25.5240   52.4300 C.3     0  <0>0        0.0047
     12  C10        0.1490   31.2930   56.5940 C.3     0  <0>0        0.1213
     13  C11        0.5180   30.4410   57.8100 C.3     0  <0>0        0.1530
     14  C12       -0.3160   29.1860   57.8160 C.ar    0  <0>0        0.0165
     15  C17        0.2700   27.9670   58.1050 C.ar    0  <0>0        0.0560
     16  C16       -0.4970   26.8160   58.1170 C.ar    0  <0>0        0.0112
     17 Cl          1.9670   27.8820   58.4620 Cl      0  <0>0       -0.0825
     18  C15       -1.8470   26.8830   57.8280 C.ar    0  <0>0        0.0008
     19  C14       -2.4310   28.1010   57.5330 C.ar    0  <0>0       -0.0002
     20  C13       -1.6660   29.2520   57.5280 C.ar    0  <0>0       -0.0011
     21  O1         0.2690   31.1850   59.0050 O.3     0  <0>0       -0.3783
     22  H20       -0.4260   30.8090   59.5640 H       0  <0>0        0.2109
@<TRIPOS>BOND
     1    11     9    1
     2     6     5   ar
     3     6     7   ar
     4     5     4   ar
     5     9     7    1
     6     9    10    1
     7     7     8   ar
     8     4     3   ar
     9     8     3   ar
    10     3     1    1
    11     2     1    1
    12     1    12    1
    13    12    13    1
    14    20    19   ar
    15    20    14   ar
    16    19    18   ar
    17    13    14    1
    18    13    21    1
    19    14    15   ar
    20    18    16   ar
    21    15    16   ar
    22    15    17    1
    23    21    22    1
