@<TRIPOS>MOLECULE
ZINC57710753_replica-1.pdb
 19 20 0 0 0
SMALL
GASTEIGER

@<TRIPOS>ATOM
      1  S2        -0.5270   28.6440   55.0400 S.O2    0  <0>0        0.1039
      2  O1         0.4150   27.8610   55.7600 O.2     0  <0>0       -0.1462
      3  O2        -1.8030   28.9760   55.5690 O.2     0  <0>0       -0.1462
      4  N2         0.2240   30.0750   54.6790 N.2     0  <0>0       -0.1033
      5  C4         0.5190   30.9190   55.6360 C.ar    0  <0>0        0.1921
      6  S1         0.2310   30.7850   57.3940 S.2     0  <0>0       -0.0475
      7  N1         1.1290   32.1530   55.5550 N.ar    0  <0>0       -0.3350
      8  C3         0.9400   32.3500   57.8780 C.ar    0  <0>0        0.0509
      9  C2         1.3350   32.8530   56.7080 C.ar    0  <0>0        0.0421
     10  C1         2.0040   34.2020   56.6580 C.3     0  <0>0        0.0504
     11  H8         1.4100   32.5120   54.7000 H       0  <0>0        0.1676
     12  C5        -0.8170   27.8080   53.5150 C.ar    0  <0>0        0.1502
     13  C10       -1.5730   28.4130   52.5270 C.ar    0  <0>0        0.0776
     14  C9        -1.7950   27.7580   51.3280 C.ar    0  <0>0        0.0128
     15 Cl         -2.2370   29.9960   52.7880 Cl      0  <0>0       -0.0808
     16  C8        -1.2730   26.4960   51.1230 C.ar    0  <0>0        0.0018
     17  C7        -0.5220   25.8880   52.1130 C.ar    0  <0>0        0.0128
     18  C6        -0.2940   26.5440   53.3090 C.ar    0  <0>0        0.0776
     19 Cl          0.6480   25.7820   54.5520 Cl      0  <0>0       -0.0808
@<TRIPOS>BOND
     1    16    14   ar
     2    16    17   ar
     3    14    13   ar
     4    17    18   ar
     5    13    15    1
     6    13    12   ar
     7    18    12   ar
     8    18    19    1
     9    12     1    1
    10     4     1    1
    11     4     5    2
    12    11     7    1
    13     1     3    2
    14     1     2    2
    15     7     5   ar
    16     7     9   ar
    17     5     6   ar
    18    10     9    1
    19     9     8   ar
    20     6     8   ar
