@<TRIPOS>MOLECULE
ZINC35648248_replica-1.pdb
 21 22 0 0 0
SMALL
GASTEIGER

@<TRIPOS>ATOM
      1  C1        -3.0100   30.4790   52.8550 C.3     0  <0>0        0.0215
      2  C2        -2.3840   29.6990   54.0130 C.3     0  <0>0        0.0735
      3  C3        -2.4410   30.5430   55.2880 C.3     0  <0>0        0.0458
      4  C4        -2.2150   29.6590   56.4860 C.ar    0  <0>0       -0.0203
      5  C9        -1.2280   29.9760   57.4020 C.ar    0  <0>0       -0.0011
      6  C8        -1.0230   29.1700   58.5050 C.ar    0  <0>0        0.0366
      7  C7        -1.8000   28.0350   58.6870 C.ar    0  <0>0        0.1387
      8  C6        -2.7860   27.7160   57.7650 C.ar    0  <0>0        0.0366
      9  C5        -2.9910   28.5280   56.6660 C.ar    0  <0>0       -0.0011
     10  O1        -1.5970   27.2380   59.7690 O.3     0  <0>0       -0.4714
     11  C10       -1.1650   25.9000   59.5180 C.3     0  <0>0        0.2525
     12  N1        -0.9880   29.3900   53.6940 N.pl3   0  <0>0       -0.3320
     13  H14       -0.3750   30.1030   53.4590 H       0  <0>0        0.1468
     14  C11       -0.5390   28.0660   53.7310 C.ar    0  <0>0        0.0733
     15  C16       -0.7720   27.2200   52.6530 C.ar    0  <0>0        0.1635
     16  C15       -0.3210   25.9120   52.6920 C.ar    0  <0>0        0.0863
     17  F1        -1.4330   27.6760   51.5670 F       0  <0>0       -0.2020
     18  C14        0.3510   25.4440   53.8080 C.ar    0  <0>0        0.0138
     19 Cl         -0.6050   24.8560   51.3440 Cl      0  <0>0       -0.0799
     20  C13        0.5790   26.2830   54.8840 C.ar    0  <0>0        0.0023
     21  C12        0.1360   27.5910   54.8480 C.ar    0  <0>0        0.0166
@<TRIPOS>BOND
     1    19    16    1
     2    17    15    1
     3    15    16   ar
     4    15    14   ar
     5    16    18   ar
     6     1     2    1
     7    13    12    1
     8    12    14    1
     9    12     2    1
    10    14    21   ar
    11    18    20   ar
    12     2     3    1
    13    21    20   ar
    14     3     4    1
    15     4     9   ar
    16     4     5   ar
    17     9     8   ar
    18     5     6   ar
    19     8     7   ar
    20     6     7   ar
    21     7    10    1
    22    11    10    1
