@<TRIPOS>MOLECULE
ZINC62151924_replica-1.pdb
 18 19 0 0 0
SMALL
GASTEIGER

@<TRIPOS>ATOM
      1  C1         2.7100   35.5370   56.6190 C.3     0  <0>0        0.0307
      2  C2         4.0120   35.4390   57.3700 C.2     0  <0>0       -0.0248
      3  C3         5.1300   36.0270   56.8580 C.2     0  <0>0       -0.0190
      4  C4         6.3410   35.9380   57.5540 C.3     0  <0>0        0.1032
      5  C5         7.5270   36.5360   57.0540 C.2     0  <0>0        0.0701
      6  C6         8.6870   36.4010   57.8080 C.2     0  <0>0        0.0305
      7  C7         8.6480   35.6960   59.0090 C.2     0  <0>0        0.1081
      8  N1         7.5460   35.1500   59.4560 N.2     0  <0>0       -0.4094
      9  C8         6.3940   35.2380   58.7860 C.2     0  <0>0        0.1226
     10  C9         5.2180   34.6450   59.2840 C.2     0  <0>0        0.0602
     11  C10        4.0570   34.7550   58.5830 C.2     0  <0>0        0.0044
     12 Br          5.2520   33.7040   60.9240 Br      0  <0>0       -0.0467
     13  C14        7.5290   37.2760   55.7770 C.2     0  <0>0        0.3846
     14  O1         7.6830   36.6760   54.7230 O.co2   0  <0>0       -0.2409
     15  O2         7.3770   38.4900   55.7740 O.co2   0  <0>0       -0.2409
     16  C11        9.9130   35.5570   59.8170 C.3     0  <0>0        0.0524
     17  C12       10.0310   36.7350   60.7870 C.3     0  <0>0        0.0074
     18  C13        9.8730   34.2490   60.6070 C.3     0  <0>0        0.0074
@<TRIPOS>BOND
     1    14    13   ar
     2    15    13   ar
     3    13     5    1
     4     1     2    1
     5     3     2    2
     6     3     4    1
     7     5     4    1
     8     5     6    2
     9     2    11    1
    10     4     9    1
    11     6     7    1
    12    11    10    2
    13     9    10    1
    14     9     8    2
    15     7     8    2
    16     7    16    1
    17    10    12    1
    18    16    18    1
    19    16    17    1
