@<TRIPOS>MOLECULE
ZINC40282218_replica-1.pdb
 28 30 0 0 0
SMALL
GASTEIGER

@<TRIPOS>ATOM
      1  N1        -0.6890   28.3460   54.9380 N.pl3   0  <0>0       -0.2776
      2  C6        -0.7180   27.6920   53.7230 C.3     0  <0>0        0.1497
      3  C7        -0.1680   26.5080   53.2490 C.2     0  <0>0        0.0004
      4  C8        -0.3930   26.1250   51.9440 C.2     0  <0>0       -0.0024
      5  C9        -1.1650   26.9130   51.1030 C.2     0  <0>0        0.0021
      6  C10       -1.7140   28.0810   51.5520 C.2     0  <0>0        0.0296
      7  C11       -1.5000   28.4890   52.8710 C.2     0  <0>0        0.1324
      8  N2        -1.8980   29.5670   53.5940 N.2     0  <0>0       -0.3921
      9  C12       -1.4290   29.4800   54.8040 C.2     0  <0>0        0.1780
     10  C13       -1.6660   30.4890   55.8980 C.3     0  <0>0        0.1391
     11  C14       -3.0930   31.0310   55.7900 C.3     0  <0>0        0.0305
     12  N3        -0.7140   31.5930   55.7590 N.am    0  <0>0       -0.2953
     13  C15        0.0120   31.9950   56.8220 C.2     0  <0>0        0.2461
     14  O1        -0.1260   31.4410   57.8960 O.2     0  <0>0       -0.2701
     15  H20       -0.6040   32.0340   54.9030 H       0  <0>0        0.1501
     16  C16        0.9730   33.1060   56.6820 C.ar    0  <0>0        0.0536
     17  C21        0.6120   34.3970   57.0770 C.ar    0  <0>0        0.0076
     18  C20        1.5130   35.4310   56.9500 C.ar    0  <0>0        0.0370
     19  C19        2.7750   35.1930   56.4190 C.ar    0  <0>0        0.1387
     20  C18        3.1360   33.9120   56.0200 C.ar    0  <0>0        0.0370
     21  C17        2.2420   32.8710   56.1490 C.ar    0  <0>0        0.0076
     22  O2         3.6590   36.2160   56.2910 O.3     0  <0>0       -0.4714
     23  C22        4.8240   35.9700   55.5020 C.3     0  <0>0        0.2525
     24  C5         0.0070   27.9000   56.1480 C.3     0  <0>0        0.0935
     25  C3        -0.8690   26.8930   56.8970 C.3     0  <0>0        0.0199
     26  C4        -0.0370   25.6580   57.2490 C.3     0  <0>0        0.0018
     27  C2        -1.4000   27.5340   58.1800 C.3     0  <0>0        0.0017
     28  C1        -2.8930   27.2290   58.3220 C.3     0  <0>0        0.0001
@<TRIPOS>BOND
     1     5     6    2
     2     5     4    1
     3     6     7    1
     4     4     3    2
     5     7     8    2
     6     7     2    1
     7     3     2    1
     8     8     9    2
     9     2     1    1
    10     9     1    1
    11     9    10    1
    12    15    12    1
    13     1    24    1
    14    23    22    1
    15    12    10    1
    16    12    13   am
    17    11    10    1
    18    20    21   ar
    19    20    19   ar
    20    24    25    1
    21    21    16   ar
    22    22    19    1
    23    19    18   ar
    24    16    13    1
    25    16    17   ar
    26    13    14    2
    27    25    26    1
    28    25    27    1
    29    18    17   ar
    30    27    28    1
