@<TRIPOS>MOLECULE
ZINC61566775_replica-1.pdb
 20 21 0 0 0
SMALL
GASTEIGER

@<TRIPOS>ATOM
      1  N1        12.4040   34.6980   62.0440 N.pl3   0  <0>0       -0.3305
      2  H12       13.1330   35.0830   61.5330 H       0  <0>0        0.1471
      3  C7        11.1960   35.4860   62.3040 C.3     0  <0>0        0.0979
      4  C8        11.5870   36.8370   62.9060 C.3     0  <0>0        0.0266
      5  C6        10.4540   35.7080   61.0110 C.ar    0  <0>0        0.0246
      6  C5        10.4220   34.9310   59.9000 C.ar    0  <0>0        0.0039
      7  C4         9.6650   35.3380   58.8190 C.ar    0  <0>0        0.0024
      8  C3         8.9770   36.5040   58.9000 C.ar    0  <0>0        0.0070
      9  S1         9.3980   37.0680   60.5390 S.2     0  <0>0       -0.0940
     10  C2         8.0920   37.1560   57.8690 C.3     0  <0>0        0.0330
     11  C1         8.6670   38.5240   57.4950 C.3     0  <0>0        0.0056
     12  C9        12.5060   33.3920   62.5360 C.ar    0  <0>0        0.0410
     13  C14       13.7380   32.8990   62.9450 C.ar    0  <0>0       -0.0057
     14  C13       13.8370   31.6120   63.4350 C.ar    0  <0>0        0.0339
     15  C15       14.9650   33.7710   62.8610 C.3     0  <0>0        0.0324
     16  C12       12.7100   30.8060   63.5060 C.ar    0  <0>0        0.1385
     17  C11       11.4800   31.2970   63.0920 C.ar    0  <0>0        0.0381
     18  C10       11.3770   32.5860   62.6080 C.ar    0  <0>0        0.0171
     19  O1        12.8100   29.5380   63.9830 O.3     0  <0>0       -0.4714
     20  C16       12.4240   29.3230   65.3430 C.3     0  <0>0        0.2525
@<TRIPOS>BOND
     1    11    10    1
     2    10     8    1
     3     7     8   ar
     4     7     6   ar
     5     8     9   ar
     6     6     5   ar
     7     9     5   ar
     8     5     3    1
     9     2     1    1
    10     1     3    1
    11     1    12    1
    12     3     4    1
    13    12    18   ar
    14    12    13   ar
    15    18    17   ar
    16    15    13    1
    17    13    14   ar
    18    17    16   ar
    19    14    16   ar
    20    16    19    1
    21    19    20    1
