@<TRIPOS>MOLECULE
ZINC04184913_replica-1.pdb
 29 33 0 0 0
SMALL
GASTEIGER

@<TRIPOS>ATOM
      1  C1        11.4530   31.7810   63.2210 C.3     0  <0>0        0.0664
      2  C2        10.8200   32.7360   62.2430 C.2     0  <0>0        0.1087
      3  C3        10.0320   32.2280   61.2120 C.2     0  <0>0        0.0237
      4  C4         9.4500   33.0800   60.3170 C.2     0  <0>0       -0.0130
      5  C5         9.6710   34.4620   60.4740 C.3     0  <0>0        0.0944
      6  C6        10.4840   34.9110   61.5440 C.2     0  <0>0        0.1161
      7  N1        11.0250   34.0230   62.3860 N.2     0  <0>0       -0.4099
      8  C7        10.7110   36.2890   61.7040 C.2     0  <0>0        0.0294
      9  C8        10.1510   37.1740   60.8380 C.2     0  <0>0        0.0163
     10  C9         9.3430   36.7370   59.7800 C.2     0  <0>0        0.0414
     11  C10        9.0990   35.3950   59.5930 C.2     0  <0>0       -0.0126
     12  C11        8.2310   34.9240   58.4620 C.3     0  <0>0        0.0683
     13  C12        8.0740   35.9870   57.4050 C.2     0  <0>0        0.0293
     14  C13        8.3490   37.2830   57.6680 C.2     0  <0>0        0.0246
     15  N2         8.7850   37.6670   58.9040 N.pl3   0  <0>0       -0.3164
     16  C14        8.1890   38.3450   56.6080 C.3     0  <0>0        0.0414
     17  C15        7.0710   37.9440   55.6430 C.3     0  <0>0        0.0141
     18  C16        7.4240   36.5860   55.0280 C.3     0  <0>0        0.0693
     19  C17        7.6260   35.5870   56.1340 C.2     0  <0>0        0.1706
     20  O1         7.3990   34.4120   55.9250 O.2     0  <0>0       -0.2916
     21  H9         8.7030   38.5950   59.1760 H       0  <0>0        0.1519
     22  C18        6.8710   34.5660   59.0040 C.ar    0  <0>0       -0.0143
     23  C23        6.4070   33.2680   58.9030 C.ar    0  <0>0       -0.0005
     24  C22        5.1610   32.9370   59.3990 C.ar    0  <0>0        0.0366
     25  C21        4.3750   33.9080   60.0010 C.ar    0  <0>0        0.1387
     26  C20        4.8430   35.2100   60.1020 C.ar    0  <0>0        0.0366
     27  C19        6.0910   35.5350   59.6090 C.ar    0  <0>0       -0.0005
     28  O2         3.1490   33.5850   60.4890 O.3     0  <0>0       -0.4714
     29  C24        2.0210   34.2170   59.8800 C.3     0  <0>0        0.2525
@<TRIPOS>BOND
     1    18    17    1
     2    18    19    1
     3    17    16    1
     4    20    19    2
     5    19    13    1
     6    16    14    1
     7    13    14    2
     8    13    12    1
     9    14    15    1
    10    12    22    1
    11    12    11    1
    12    23    22   ar
    13    23    24   ar
    14    15    21    1
    15    15    10    1
    16    22    27   ar
    17    24    25   ar
    18    11    10    2
    19    11     5    1
    20    27    26   ar
    21    10     9    1
    22    29    28    1
    23    25    26   ar
    24    25    28    1
    25     4     5    1
    26     4     3    2
    27     5     6    1
    28     9     8    2
    29     3     2    1
    30     6     8    1
    31     6     7    2
    32     2     7    2
    33     2     1    1
