@<TRIPOS>MOLECULE
ZINC57768695_replica-1.pdb
 21 22 0 0 0
SMALL
GASTEIGER

@<TRIPOS>ATOM
      1  C7         0.1830   28.6420   56.9080 C.3     0  <0>0        0.0941
      2  C8         1.0820   27.8600   57.8690 C.3     0  <0>0        0.0262
      3  N1         0.7910   29.9430   56.6210 N.am    0  <0>0       -0.3022
      4  C6         0.0760   31.0730   56.7860 C.2     0  <0>0        0.2222
      5  O1        -1.0970   31.0090   57.0890 O.2     0  <0>0       -0.2751
      6  H13        1.7110   29.9910   56.3120 H       0  <0>0        0.1497
      7  C3         0.7320   32.4160   56.5930 C.3     0  <0>0        0.0765
      8  C2         0.2390   33.3840   57.6710 C.3     0  <0>0        0.0091
      9  C1         0.9320   33.0650   58.9970 C.3     0  <0>0        0.0005
     10  C4         2.2500   32.2610   56.7010 C.3     0  <0>0        0.0091
     11  C5         2.9340   33.3900   55.9270 C.3     0  <0>0        0.0005
     12  C9         0.0240   27.8670   55.6260 C.ar    0  <0>0       -0.0048
     13  C14       -0.6990   28.4010   54.5800 C.ar    0  <0>0       -0.0073
     14  C13       -0.8470   27.6960   53.3920 C.ar    0  <0>0       -0.0264
     15  C12       -0.2710   26.4520   53.2600 C.ar    0  <0>0       -0.0262
     16  C15       -1.6560   28.3340   52.2930 C.3     0  <0>0        0.0260
     17  C11        0.4510   25.9130   54.3180 C.ar    0  <0>0       -0.0048
     18  C18       -0.3850   25.6340   52.0000 C.3     0  <0>0        0.0260
     19  C10        0.5980   26.6160   55.4960 C.ar    0  <0>0       -0.0030
     20  C17       -1.5350   26.1430   51.1340 C.3     0  <0>0        0.0050
     21  C16       -1.3730   27.6570   50.9540 C.3     0  <0>0        0.0050
@<TRIPOS>BOND
     1    21    20    1
     2    21    16    1
     3    20    18    1
     4    18    15    1
     5    16    14    1
     6    15    14   ar
     7    15    17   ar
     8    14    13   ar
     9    17    19   ar
    10    13    12   ar
    11    19    12   ar
    12    12     1    1
    13    11    10    1
    14     6     3    1
    15     7    10    1
    16     7     4    1
    17     7     8    1
    18     3     4   am
    19     3     1    1
    20     4     5    2
    21     1     2    1
    22     8     9    1
