@<TRIPOS>MOLECULE
ZINC34907283_replica-1.pdb
 28 31 0 0 0
SMALL
GASTEIGER

@<TRIPOS>ATOM
      1  C3         1.0040   32.8520   59.2880 C.ar    0  <0>0        0.0634
      2  C4         0.3690   31.8440   58.6470 C.ar    0  <0>0        0.0509
      3  C5         1.2460   31.3280   57.6780 C.ar    0  <0>0        0.1557
      4  N1         2.3670   32.0070   57.7380 N.ar    0  <0>0       -0.1501
      5  N2         2.2400   32.9780   58.7400 N.ar    0  <0>0       -0.2303
      6  N3         0.9690   30.2730   56.8010 N.am    0  <0>0       -0.2640
      7  C12        0.2760   30.5010   55.6680 C.2     0  <0>0        0.2566
      8  O1        -0.1100   31.6260   55.4070 O.2     0  <0>0       -0.2692
      9  H10        1.2760   29.3760   57.0090 H       0  <0>0        0.1566
     10  C13       -0.0150   29.3940   54.7480 C.ar    0  <0>0        0.0831
     11  S1         0.5700   27.7090   54.8160 S.2     0  <0>0       -0.0824
     12  C20       -0.2510   27.0930   53.3670 C.ar    0  <0>0        0.0296
     13  C15       -0.9460   28.2240   52.8770 C.ar    0  <0>0        0.0066
     14  C19       -0.3040   25.8680   52.7380 C.ar    0  <0>0        0.0065
     15  C14       -0.7910   29.4000   53.6310 C.ar    0  <0>0        0.0115
     16  C16       -1.7060   28.0330   51.6940 C.ar    0  <0>0        0.0005
     17  C17       -1.7480   26.8200   51.0840 C.ar    0  <0>0        0.0000
     18  C18       -1.0560   25.7260   51.5900 C.ar    0  <0>0        0.0005
     19  C2         0.4380   33.6910   60.4040 C.3     0  <0>0        0.0460
     20  C1         0.6670   32.9830   61.7410 C.3     0  <0>0        0.0067
     21  C6         3.2170   33.9110   59.1130 C.ar    0  <0>0        0.1099
     22  C11        4.0820   33.6320   60.1650 C.ar    0  <0>0        0.1599
     23  C10        5.0490   34.5520   60.5270 C.ar    0  <0>0        0.0608
     24  F1         3.9810   32.4590   60.8300 F       0  <0>0       -0.2025
     25  C9         5.1480   35.7550   59.8500 C.ar    0  <0>0        0.1425
     26  C8         4.2840   36.0370   58.8050 C.ar    0  <0>0        0.0313
     27  F2         6.0880   36.6560   60.2080 F       0  <0>0       -0.2041
     28  C7         3.3200   35.1180   58.4360 C.ar    0  <0>0        0.0237
@<TRIPOS>BOND
     1    17    18   ar
     2    17    16   ar
     3    18    14   ar
     4    16    13   ar
     5    14    12   ar
     6    13    12   ar
     7    13    15   ar
     8    12    11   ar
     9    15    10   ar
    10    10    11   ar
    11    10     7    1
    12     8     7    2
    13     7     6   am
    14     6     9    1
    15     6     3    1
    16     3     4   ar
    17     3     2   ar
    18     4     5   ar
    19    28    26   ar
    20    28    21   ar
    21     2     1   ar
    22     5    21    1
    23     5     1   ar
    24    26    25   ar
    25    21    22   ar
    26     1    19    1
    27    25    27    1
    28    25    23   ar
    29    22    23   ar
    30    22    24    1
    31    19    20    1
