@<TRIPOS>MOLECULE
ZINC04885252_replica-1.pdb
 28 30 0 0 0
SMALL
GASTEIGER

@<TRIPOS>ATOM
      1  C7         9.0570   35.1870   60.0570 C.2     0  <0>0        0.0553
      2  C8         9.2640   35.8280   58.8240 C.2     0  <0>0        0.0008
      3  C9         8.2180   36.0930   57.9960 C.2     0  <0>0       -0.0144
      4  C10        6.9180   35.7270   58.3710 C.3     0  <0>0        0.1019
      5  C11        6.6920   35.0780   59.6090 C.2     0  <0>0        0.1169
      6  C12        7.7850   34.8070   60.4480 C.2     0  <0>0        0.0327
      7  N2         5.4520   34.7300   59.9580 N.2     0  <0>0       -0.4102
      8  C13        4.4020   34.9680   59.1910 C.2     0  <0>0        0.1048
      9  C14        4.5420   35.6040   57.9700 C.2     0  <0>0        0.0056
     10  C15        5.8070   35.9920   57.5370 C.2     0  <0>0        0.0121
     11  C18        3.3730   35.9110   57.0720 C.3     0  <0>0        0.0288
     12  C19        2.1600   35.0700   57.4630 C.3     0  <0>0        0.0052
     13  C20        1.9290   35.2270   58.9710 C.3     0  <0>0        0.0078
     14  C21        3.0590   34.5130   59.7090 C.3     0  <0>0        0.0587
     15  C6        10.2100   34.9090   60.9400 C.2     0  <0>0        0.2459
     16  N1        10.4140   33.6620   61.4100 N.am    0  <0>0       -0.3009
     17  H12        9.8050   32.9470   61.1690 H       0  <0>0        0.1497
     18  O1        10.9740   35.8050   61.2420 O.2     0  <0>0       -0.2701
     19  C5        11.5570   33.3870   62.2850 C.3     0  <0>0        0.0897
     20  C4        11.3490   32.0430   62.9880 C.3     0  <0>0        0.0213
     21  C2        12.6840   31.3020   63.0740 C.3     0  <0>0        0.0017
     22  C1        13.8220   32.3140   63.2260 C.3     0  <0>0        0.0001
     23  C3        12.6700   30.3640   64.2830 C.3     0  <0>0        0.0001
     24  S1         6.0200   36.7950   55.9820 S.3     0  <0>0       -0.1056
     25  C16        6.5730   35.4700   54.8750 C.3     0  <0>0        0.1756
     26  C17        5.4280   34.5280   54.6070 C.2     0  <0>0        0.3760
     27  O2         4.5260   34.8610   53.8580 O.co2   0  <0>0       -0.2447
     28  O3         5.4030   33.4310   55.1400 O.co2   0  <0>0       -0.2447
@<TRIPOS>BOND
     1    27    26   ar
     2    26    25    1
     3    26    28   ar
     4    25    24    1
     5    24    10    1
     6    11    12    1
     7    11     9    1
     8    12    13    1
     9    10     9    2
    10    10     4    1
    11     9     8    1
    12     3     4    1
    13     3     2    2
    14     4     5    1
    15     2     1    1
    16    13    14    1
    17     8    14    1
    18     8     7    2
    19     5     7    2
    20     5     6    1
    21     1     6    2
    22     1    15    1
    23    15    18    2
    24    15    16   am
    25    17    16    1
    26    16    19    1
    27    19    20    1
    28    20    21    1
    29    21    22    1
    30    21    23    1
