@<TRIPOS>MOLECULE
ZINC04939267_replica-1.pdb
 27 30 0 0 0
SMALL
GASTEIGER

@<TRIPOS>ATOM
      1  C1         7.2120   37.4860   55.2750 C.3     0  <0>0        0.0310
      2  C2         6.5620   36.8290   56.4650 C.ar    0  <0>0       -0.0216
      3  C3         7.0550   37.0660   57.7400 C.ar    0  <0>0       -0.0011
      4  C4         6.4720   36.4700   58.8380 C.ar    0  <0>0        0.0373
      5  C5         5.3830   35.6240   58.6770 C.ar    0  <0>0        0.1491
      6  C6         4.8820   35.3820   57.3850 C.ar    0  <0>0        0.0406
      7  C7         5.4840   35.9920   56.2830 C.ar    0  <0>0       -0.0007
      8  C8         3.7380   34.4920   57.2310 C.ar    0  <0>0        0.0388
      9  C9         3.1440   33.8860   58.3540 C.ar    0  <0>0        0.0827
     10  C10        2.0500   33.0560   58.0820 C.ar    0  <0>0        0.0180
     11  C11        1.6590   32.8950   56.7840 C.ar    0  <0>0        0.0830
     12  S1         2.8150   33.9190   55.8940 S.2     0  <0>0       -0.0821
     13  C21        3.7570   34.2150   59.6610 C.ar    0  <0>0        0.3462
     14  O2         3.2960   33.7260   60.6760 O.2     0  <0>0       -0.2445
     15  O3         4.8070   35.0380   59.7480 O.2     0  <0>0       -0.4210
     16  C12        0.5570   32.0840   56.2540 C.2     0  <0>0        0.2519
     17  O1        -0.5120   32.0560   56.8340 O.2     0  <0>0       -0.2696
     18  N1         0.7290   31.3680   55.1250 N.am    0  <0>0       -0.3001
     19  H8         1.5820   31.3900   54.6630 H       0  <0>0        0.1498
     20  C13       -0.3710   30.5580   54.5960 C.3     0  <0>0        0.0940
     21  C14       -0.1550   29.0930   54.9800 C.3     0  <0>0        0.0429
     22  C15       -0.4560   28.2140   53.7930 C.2     0  <0>0       -0.0468
     23  C20        0.2060   26.8690   53.7280 C.3     0  <0>0        0.0218
     24  C19       -0.5190   25.9730   52.7220 C.3     0  <0>0        0.0047
     25  C18       -0.7000   26.7520   51.4120 C.3     0  <0>0        0.0050
     26  C17       -1.6730   27.9050   51.6650 C.3     0  <0>0        0.0254
     27  C16       -1.2700   28.6660   52.8940 C.2     0  <0>0       -0.0346
@<TRIPOS>BOND
     1    25    26    1
     2    25    24    1
     3    26    27    1
     4    24    23    1
     5    27    22    2
     6    23    22    1
     7    22    21    1
     8    20    21    1
     9    20    18    1
    10    19    18    1
    11    18    16   am
    12     1     2    1
    13    12    11   ar
    14    12     8   ar
    15    16    11    1
    16    16    17    2
    17     7     2   ar
    18     7     6   ar
    19     2     3   ar
    20    11    10   ar
    21     8     6   ar
    22     8     9   ar
    23     6     5   ar
    24     3     4   ar
    25    10     9   ar
    26     9    13   ar
    27     5     4   ar
    28     5    15   ar
    29    13    15   ar
    30    13    14    2
