@<TRIPOS>MOLECULE
ZINC13309990_replica-1.pdb
 24 25 0 0 0
SMALL
GASTEIGER

@<TRIPOS>ATOM
      1  N1         7.4500   37.6270   60.8340 N.3     0  <0>0       -0.1786
      2  H16        7.4280   38.5780   60.6380 H       0  <0>0        0.1488
      3  C11        8.5250   37.0750   61.6620 C.3     0  <0>0        0.0961
      4  C10        9.7580   36.8170   60.7930 C.3     0  <0>0        0.0452
      5  C7        10.6460   35.8050   61.4690 C.ar    0  <0>0       -0.0208
      6  C6        11.5710   36.2170   62.4100 C.ar    0  <0>0       -0.0045
      7  C5        12.3870   35.2890   63.0300 C.ar    0  <0>0       -0.0046
      8  C4        12.2770   33.9480   62.7090 C.ar    0  <0>0       -0.0225
      9  C9        11.3510   33.5360   61.7680 C.ar    0  <0>0       -0.0046
     10  C8        10.5330   34.4650   61.1510 C.ar    0  <0>0       -0.0045
     11  C2        13.1660   32.9360   63.3840 C.3     0  <0>0        0.0224
     12  C1        12.7480   31.5270   62.9610 C.3     0  <0>0        0.0047
     13  C3        14.6200   33.1810   62.9730 C.3     0  <0>0        0.0047
     14  S1         6.2720   36.6310   60.2340 S.O2    0  <0>0        0.0659
     15  O1         6.1790   35.5290   61.1270 O.2     0  <0>0       -0.1525
     16  O2         5.1590   37.4590   59.9270 O.2     0  <0>0       -0.1525
     17  C12        6.8610   35.9910   58.7030 C.ar    0  <0>0        0.1516
     18  S2         7.4630   36.8860   57.2860 S.2     0  <0>0       -0.0666
     19  C15        7.8320   35.5550   56.2410 C.ar    0  <0>0        0.0433
     20  C14        7.4890   34.4540   56.9980 C.ar    0  <0>0        0.0881
     21  C13        6.9730   34.7030   58.3210 C.ar    0  <0>0        0.0337
     22  C16        7.6460   33.0860   56.4800 C.2     0  <0>0        0.3883
     23  O3         8.4130   32.3150   57.0230 O.co2   0  <0>0       -0.2405
     24  O4         6.9400   32.6880   55.4020 O.co2   0  <0>0       -0.2405
@<TRIPOS>BOND
     1    24    22   ar
     2    19    20   ar
     3    19    18   ar
     4    22    20    1
     5    22    23   ar
     6    20    21   ar
     7    18    17   ar
     8    21    17   ar
     9    17    14    1
    10    16    14    2
    11    14     1    1
    12    14    15    2
    13     2     1    1
    14     4     5    1
    15     4     3    1
    16     1     3    1
    17    10     5   ar
    18    10     9   ar
    19     5     6   ar
    20     9     8   ar
    21     6     7   ar
    22     8     7   ar
    23     8    11    1
    24    12    11    1
    25    13    11    1
