@<TRIPOS>MOLECULE
ZINC05442689_replica-1.pdb
 25 27 0 0 0
SMALL
GASTEIGER

@<TRIPOS>ATOM
      1  N1        10.6400   35.0340   60.7960 N.am    0  <0>0       -0.1590
      2  C9        10.0290   36.1570   61.2250 C.2     0  <0>0        0.2548
      3  O1        10.1230   36.6660   62.3290 O.2     0  <0>0       -0.2723
      4  C10        9.2290   36.6410   60.0940 C.3     0  <0>0        0.1355
      5  C18        9.4690   35.6710   59.0150 C.2     0  <0>0        0.0651
      6  N3        10.2890   34.7740   59.4710 N.2     0  <0>0       -0.1797
      7  C19        8.8750   35.7120   57.6310 C.3     0  <0>0        0.0495
      8  C11        8.4240   37.7680   60.0510 C.3     0  <0>0        0.1020
      9  N2         7.1870   37.7330   60.5870 N.pl3   0  <0>0       -0.3320
     10  H11        6.9280   38.3870   61.2550 H       0  <0>0        0.1468
     11  C12        6.2750   36.7530   60.1800 C.ar    0  <0>0        0.0447
     12  C17        6.0480   35.6390   60.9780 C.ar    0  <0>0        0.0148
     13  C16        5.1430   34.6770   60.5760 C.ar    0  <0>0        0.0080
     14  C15        4.4730   34.8150   59.3730 C.ar    0  <0>0        0.0346
     15  C14        4.7010   35.9220   58.5740 C.ar    0  <0>0        0.0080
     16 Br          3.2400   33.4910   58.8230 Br      0  <0>0       -0.0490
     17  C13        5.6000   36.8900   58.9740 C.ar    0  <0>0        0.0148
     18  C5        11.5050   34.2460   61.5660 C.ar    0  <0>0        0.0727
     19  C4        12.7810   34.7060   61.8680 C.ar    0  <0>0        0.0162
     20  C3        13.6310   33.9270   62.6280 C.ar    0  <0>0       -0.0029
     21  C2        13.2140   32.6920   63.0880 C.ar    0  <0>0       -0.0221
     22  C1        14.1450   31.8440   63.9180 C.3     0  <0>0        0.0310
     23  C7        11.9470   32.2290   62.7850 C.ar    0  <0>0       -0.0072
     24  C6        11.0900   33.0050   62.0300 C.ar    0  <0>0       -0.0066
     25  C8         9.7060   32.5040   61.7040 C.3     0  <0>0        0.0324
@<TRIPOS>BOND
     1     7     5    1
     2    15    17   ar
     3    15    14   ar
     4    16    14    1
     5    17    11   ar
     6     5     6    2
     7     5     4    1
     8    14    13   ar
     9     6     1    1
    10     8     4    1
    11     8     9    1
    12     4     2    1
    13    11     9    1
    14    11    12   ar
    15    13    12   ar
    16     9    10    1
    17     1     2   am
    18     1    18    1
    19     2     3    2
    20    18    19   ar
    21    18    24   ar
    22    25    24    1
    23    19    20   ar
    24    24    23   ar
    25    20    21   ar
    26    23    21   ar
    27    21    22    1
