@<TRIPOS>MOLECULE
ZINC41193269_replica-1.pdb
 20 21 0 0 0
SMALL
GASTEIGER

@<TRIPOS>ATOM
      1  C4         6.8020   35.6020   58.5120 C.3     0  <0>0        0.0081
      2  C5         7.3030   34.7010   57.3820 C.3     0  <0>0       -0.0141
      3  N1         6.6350   36.9730   58.0090 N.4     0  <0>0        0.3907
      4  H8         7.2720   37.5880   58.4920 H       0  <0>0       -0.0837
      5  H27        5.6860   37.2750   58.1700 H       0  <0>0       -0.0837
      6  C3         6.9210   37.0030   56.5690 C.3     0  <0>0       -0.0810
      7  C2         7.5610   38.3440   56.2040 C.3     0  <0>0       -0.0233
      8  C1         8.5640   38.7430   57.2870 C.3     0  <0>0       -0.0023
      9  C6         5.4790   35.0870   59.0160 C.2     0  <0>0        0.1155
     10  S1         5.1890   33.8430   60.1120 S.3     0  <0>0       -0.0815
     11  C8         3.4060   33.9290   60.1150 C.3     0  <0>0        0.1184
     12  C7         3.2020   34.9400   59.2310 C.2     0  <0>0        0.0985
     13  N2         4.2740   35.4960   58.7030 N.2     0  <0>0       -0.4098
     14  C9         1.8140   35.4080   58.8750 C.3     0  <0>0        0.0624
     15  C10        7.8200   35.6000   59.6550 C.3     0  <0>0       -0.0109
     16  C15        9.2340   35.5410   59.0760 C.3     0  <0>0       -0.0016
     17  C14       10.2530   35.5380   60.2190 C.3     0  <0>0       -0.0001
     18  C13       10.0930   36.8150   61.0480 C.3     0  <0>0       -0.0000
     19  C12        8.6770   36.8730   61.6260 C.3     0  <0>0       -0.0001
     20  C11        7.6590   36.8760   60.4830 C.3     0  <0>0       -0.0016
@<TRIPOS>BOND
     1     7     6    1
     2     7     8    1
     3     6     3    1
     4     2     1    1
     5     3     5    1
     6     3     4    1
     7     3     1    1
     8     1     9    1
     9     1    15    1
    10    13     9    2
    11    13    12    2
    12    14    12    1
    13     9    10    1
    14    16    15    1
    15    16    17    1
    16    12    11    1
    17    15    20    1
    18    10    11    1
    19    17    18    1
    20    20    19    1
    21    18    19    1
