@<TRIPOS>MOLECULE
ZINC09376084_replica-1.pdb
 29 33 0 0 0
SMALL
GASTEIGER

@<TRIPOS>ATOM
      1  C7         8.0670   36.7350   57.7000 C.2     0  <0>0       -0.0012
      2  C8         8.4740   37.6670   56.8050 C.2     0  <0>0        0.0332
      3  S1         7.1550   37.6900   55.6070 S.3     0  <0>0       -0.0717
      4  C9         6.0980   36.4620   56.3280 C.2     0  <0>0        0.0973
      5  C10        6.7930   36.0610   57.4820 C.3     0  <0>0        0.1452
      6  C11        6.1520   35.0540   58.2730 C.2     0  <0>0        0.2372
      7  O1         6.6770   34.6410   59.2920 O.2     0  <0>0       -0.2740
      8  N1         4.9640   34.5670   57.8710 N.am    0  <0>0       -0.2516
      9  C12        4.3630   35.0180   56.7400 C.3     0  <0>0        0.2225
     10  N2         4.9220   35.9360   55.9980 N.2     0  <0>0       -0.2451
     11  C13        4.3040   33.5320   58.6710 C.3     0  <0>0        0.1506
     12  C14        2.8190   33.5770   58.4250 C.2     0  <0>0        0.1186
     13  N3         2.2540   32.6870   57.6430 N.2     0  <0>0       -0.4017
     14  C16        0.9490   32.7050   57.4100 C.2     0  <0>0        0.1565
     15  S2         0.4420   34.1150   58.3850 S.3     0  <0>0       -0.0751
     16  C15        2.0600   34.5370   59.0170 C.3     0  <0>0        0.1206
     17  C17        0.1330   31.8010   56.5710 C.ar    0  <0>0        0.0357
     18  C22        0.6740   31.2460   55.4100 C.ar    0  <0>0        0.0054
     19  C21       -0.0900   30.4030   54.6320 C.ar    0  <0>0        0.0297
     20  C20       -1.3930   30.1060   55.0000 C.ar    0  <0>0        0.1401
     21  C19       -1.9340   30.6550   56.1530 C.ar    0  <0>0        0.0297
     22  F1        -2.1380   29.2800   54.2340 F       0  <0>0       -0.2042
     23  C18       -1.1770   31.4960   56.9400 C.ar    0  <0>0        0.0054
     24  C4         8.9020   36.4060   58.8810 C.ar    0  <0>0       -0.0026
     25  C3         9.7210   35.2770   58.8650 C.ar    0  <0>0       -0.0003
     26  C2        10.4960   34.9770   59.9660 C.ar    0  <0>0       -0.0000
     27  C1        10.4620   35.7910   61.0840 C.ar    0  <0>0       -0.0000
     28  C6         9.6500   36.9110   61.1050 C.ar    0  <0>0       -0.0000
     29  C5         8.8760   37.2260   60.0080 C.ar    0  <0>0       -0.0003
@<TRIPOS>BOND
     1    22    20    1
     2    19    20   ar
     3    19    18   ar
     4    20    21   ar
     5    18    17   ar
     6     3     4    1
     7     3     2    1
     8    10     4    2
     9    10     9    1
    10    21    23   ar
    11     4     5    1
    12    17    23   ar
    13    17    14    1
    14     9     8    1
    15     2     1    2
    16    14    13    2
    17    14    15    1
    18     5     1    1
    19     5     6    1
    20    13    12    2
    21     1    24    1
    22     8     6   am
    23     8    11    1
    24     6     7    2
    25    15    16    1
    26    12    11    1
    27    12    16    1
    28    25    24   ar
    29    25    26   ar
    30    24    29   ar
    31    26    27   ar
    32    29    28   ar
    33    27    28   ar
