@<TRIPOS>MOLECULE
ZINC12397064_replica-1.pdb
 19 20 0 0 0
SMALL
GASTEIGER

@<TRIPOS>ATOM
      1  C8        -2.6340   29.7680   54.2460 C.3     0  <0>0        0.1381
      2  C7        -2.6010   30.2390   55.6770 C.2     0  <0>0        0.1816
      3  O1        -2.8300   31.4010   55.9380 O.2     0  <0>0       -0.2908
      4  C5        -2.2920   29.2900   56.7560 C.ar    0  <0>0        0.0457
      5  C4        -1.1960   29.5140   57.5970 C.ar    0  <0>0        0.0604
      6  C3        -0.9130   28.6180   58.6090 C.ar    0  <0>0        0.0115
      7 Cl         -0.1960   30.9150   57.3700 Cl      0  <0>0       -0.0822
      8  C2        -1.7090   27.5020   58.7910 C.ar    0  <0>0        0.0009
      9  C1        -2.7950   27.2740   57.9640 C.ar    0  <0>0        0.0001
     10  C6        -3.0940   28.1610   56.9520 C.ar    0  <0>0        0.0037
     11  C9        -1.2460   29.3650   53.8180 C.2     0  <0>0        0.1816
     12  O2        -0.3010   30.0790   54.0750 O.2     0  <0>0       -0.2908
     13  C10       -1.0390   28.1050   53.0880 C.ar    0  <0>0        0.0457
     14  C15       -0.3020   27.0670   53.6710 C.ar    0  <0>0        0.0604
     15  C14       -0.1120   25.8870   52.9780 C.ar    0  <0>0        0.0115
     16 Cl          0.3680   27.2620   55.2600 Cl      0  <0>0       -0.0822
     17  C13       -0.6470   25.7310   51.7120 C.ar    0  <0>0        0.0009
     18  C12       -1.3760   26.7540   51.1290 C.ar    0  <0>0        0.0001
     19  C11       -1.5800   27.9350   51.8090 C.ar    0  <0>0        0.0037
@<TRIPOS>BOND
     1    18    17   ar
     2    18    19   ar
     3    17    15   ar
     4    19    13   ar
     5    15    14   ar
     6    13    14   ar
     7    13    11    1
     8    14    16    1
     9    11    12    2
    10    11     1    1
    11     1     2    1
    12     2     3    2
    13     2     4    1
    14     4    10   ar
    15     4     5   ar
    16    10     9   ar
    17     7     5    1
    18     5     6   ar
    19     9     8   ar
    20     6     8   ar
