@<TRIPOS>MOLECULE
ZINC36850548_replica-1.pdb
 22 23 0 0 0
SMALL
GASTEIGER

@<TRIPOS>ATOM
      1  N1         8.4630   36.7830   58.0390 N.pl3   0  <0>0       -0.3340
      2  H13        8.5950   37.6640   57.6550 H       0  <0>0        0.1468
      3  C6         7.4510   35.8840   57.4780 C.3     0  <0>0        0.0690
      4  C5         6.0700   36.2780   58.0060 C.3     0  <0>0        0.0179
      5  C4         5.0140   35.3390   57.4190 C.3     0  <0>0        0.0016
      6  C3         5.0270   35.4470   55.8930 C.3     0  <0>0        0.0001
      7  C2         6.4080   35.0530   55.3660 C.3     0  <0>0        0.0016
      8  C1         6.7190   33.6130   55.7790 C.3     0  <0>0        0.0001
      9  C7         7.4640   35.9920   55.9520 C.3     0  <0>0        0.0195
     10  C15        6.0570   36.1710   59.5320 C.3     0  <0>0        0.0016
     11  C16        5.7150   37.5350   60.1360 C.3     0  <0>0        0.0001
     12  C17        5.0080   35.1450   59.9620 C.3     0  <0>0        0.0001
     13  C8         9.2360   36.3710   59.1310 C.ar    0  <0>0        0.0448
     14  C13        9.4120   37.2190   60.2170 C.ar    0  <0>0        0.0174
     15  C12       10.1710   36.8090   61.2950 C.ar    0  <0>0        0.0384
     16  C11       10.7680   35.5580   61.2890 C.ar    0  <0>0        0.1444
     17  C10       10.5970   34.7130   60.2030 C.ar    0  <0>0        0.0384
     18  C9         9.8340   35.1180   59.1260 C.ar    0  <0>0        0.0174
     19  O1        11.5200   35.1590   62.3500 O.3     0  <0>0       -0.4236
     20  C14       12.2330   33.9280   62.2130 C.3     0  <0>0        0.5087
     21  F1        13.5020   34.1810   61.6820 F       0  <0>0       -0.1550
     22  F2        12.3630   33.3220   63.4670 F       0  <0>0       -0.1550
@<TRIPOS>BOND
     1     7     8    1
     2     7     6    1
     3     7     9    1
     4     6     5    1
     5     9     3    1
     6     5     4    1
     7     3     4    1
     8     3     1    1
     9     2     1    1
    10     4    10    1
    11     1    13    1
    12    18    13   ar
    13    18    17   ar
    14    13    14   ar
    15    10    12    1
    16    10    11    1
    17    17    16   ar
    18    14    15   ar
    19    16    15   ar
    20    16    19    1
    21    21    20    1
    22    20    19    1
    23    20    22    1
