@<TRIPOS>MOLECULE
ZINC44389329_replica-1.pdb
 23 24 0 0 0
SMALL
GASTEIGER

@<TRIPOS>ATOM
      1  N1         9.0090   36.7980   61.8650 N.3     0  <0>0       -0.2914
      2  H15        8.8060   36.0140   62.4670 H       0  <0>0        0.1236
      3  C10       10.3850   36.7310   61.3550 C.3     0  <0>0        0.0957
      4  C7        11.0100   35.4240   61.7700 C.ar    0  <0>0       -0.0064
      5  C6        12.1610   35.4200   62.5350 C.ar    0  <0>0       -0.0032
      6  C5        12.7340   34.2210   62.9160 C.ar    0  <0>0       -0.0046
      7  C4        12.1540   33.0260   62.5350 C.ar    0  <0>0       -0.0225
      8  C9        11.0050   33.0290   61.7660 C.ar    0  <0>0       -0.0046
      9  C8        10.4310   34.2290   61.3880 C.ar    0  <0>0       -0.0032
     10  C2        12.7780   31.7190   62.9510 C.3     0  <0>0        0.0224
     11  C1        14.0480   31.9940   63.7590 C.3     0  <0>0        0.0047
     12  C3        11.7870   30.9310   63.8100 C.3     0  <0>0        0.0047
     13  C11        8.0420   36.8790   60.7620 C.3     0  <0>0        0.1030
     14  C12        8.5720   37.8340   59.6890 C.3     0  <0>0        0.1485
     15  C13        8.4390   37.1890   58.3330 C.ar    0  <0>0        0.0078
     16  C18        7.9360   37.9150   57.2710 C.ar    0  <0>0        0.0277
     17  C17        7.8190   37.3240   56.0240 C.ar    0  <0>0        0.1399
     18  C16        8.1940   36.0030   55.8460 C.ar    0  <0>0        0.0296
     19  F1         7.3330   38.0340   54.9810 F       0  <0>0       -0.2042
     20  C15        8.6910   35.2780   56.9130 C.ar    0  <0>0        0.0021
     21  C14        8.8130   35.8700   58.1560 C.ar    0  <0>0       -0.0018
     22  O1         7.8170   39.0470   59.7160 O.3     0  <0>0       -0.3786
     23  H22        7.2540   39.1770   58.9410 H       0  <0>0        0.2108
@<TRIPOS>BOND
     1    19    17    1
     2    18    17   ar
     3    18    20   ar
     4    17    16   ar
     5    20    21   ar
     6    16    15   ar
     7    21    15   ar
     8    15    14    1
     9    23    22    1
    10    14    22    1
    11    14    13    1
    12    13     1    1
    13     3     4    1
    14     3     1    1
    15     9     8   ar
    16     9     4   ar
    17     8     7   ar
    18     4     5   ar
    19     1     2    1
    20     7     6   ar
    21     7    10    1
    22     5     6   ar
    23    10    11    1
    24    10    12    1
