@<TRIPOS>MOLECULE
ZINC34734379_replica-1.pdb
 31 34 0 0 0
SMALL
GASTEIGER

@<TRIPOS>ATOM
      1  C1         0.3370   31.5130   61.8160 C.3     0  <0>0        0.0274
      2  C2         0.3040   30.3470   60.8590 C.2     0  <0>0       -0.0270
      3  C3         0.1990   29.0940   61.3220 C.2     0  <0>0        0.0027
      4  S1         0.2020   28.1030   59.8400 S.3     0  <0>0       -0.0630
      5  C4         0.3430   29.4000   58.6390 C.2     0  <0>0        0.1631
      6  C5         0.3780   30.5730   59.4250 C.3     0  <0>0        0.1459
      7  C6         0.4870   31.7910   58.7020 C.2     0  <0>0        0.1850
      8  N1         0.5420   31.7570   57.3800 N.2     0  <0>0       -0.3167
      9  C7         0.4980   30.6180   56.7020 C.1     0  <0>0        0.2006
     10  N2         0.4070   29.4500   57.3230 N.2     0  <0>0       -0.3253
     11  N3         0.5590   30.6480   55.3180 N.pl3   0  <0>0       -0.2583
     12  C23        0.1030   28.6320   62.7530 C.3     0  <0>0        0.0376
     13  H4         0.6320   31.4970   54.8550 H       0  <0>0        0.1601
     14  N4         0.5350   33.0010   59.3720 N.pl3   0  <0>0       -0.2878
     15  H14       -0.2020   33.2680   59.9430 H       0  <0>0        0.1544
     16  C16        1.6470   33.8390   59.2260 C.ar    0  <0>0        0.0843
     17  C21        1.5790   34.9520   58.3920 C.ar    0  <0>0        0.1520
     18  C20        2.6800   35.7810   58.2560 C.ar    0  <0>0        0.0382
     19  C19        3.8480   35.4960   58.9380 C.ar    0  <0>0        0.0032
     20  C18        3.9190   34.3890   59.7630 C.ar    0  <0>0        0.0015
     21  C17        2.8230   33.5600   59.9090 C.ar    0  <0>0        0.0177
     22  O1         0.4300   35.2270   57.7160 O.3     0  <0>0       -0.4702
     23  C22        0.5490   36.0170   56.5310 C.3     0  <0>0        0.2525
     24  C8         0.5120   29.3990   54.5550 C.3     0  <0>0        0.1034
     25  C9        -0.8920   29.2040   53.9810 C.3     0  <0>0        0.0483
     26  C10       -0.9090   27.9850   53.0960 C.ar    0  <0>0       -0.0205
     27  C15       -0.2380   26.8400   53.4820 C.ar    0  <0>0       -0.0042
     28  C14       -0.2560   25.7210   52.6710 C.ar    0  <0>0       -0.0003
     29  C13       -0.9390   25.7490   51.4690 C.ar    0  <0>0       -0.0000
     30  C12       -1.6060   26.8950   51.0800 C.ar    0  <0>0       -0.0003
     31  C11       -1.5900   28.0140   51.8930 C.ar    0  <0>0       -0.0042
@<TRIPOS>BOND
     1    30    29   ar
     2    30    31   ar
     3    29    28   ar
     4    31    26   ar
     5    28    27   ar
     6    26    27   ar
     7    26    25    1
     8    25    24    1
     9    24    11    1
    10    13    11    1
    11    11     9    1
    12    23    22    1
    13     9    10    2
    14     9     8    2
    15    10     5    2
    16     8     7    2
    17    22    17    1
    18    18    17   ar
    19    18    19   ar
    20    17    16   ar
    21     5     6    1
    22     5     4    1
    23     7    14    1
    24     7     6    1
    25    19    20   ar
    26    16    14    1
    27    16    21   ar
    28    14    15    1
    29     6     2    1
    30    20    21   ar
    31     4     3    1
    32     2     3    2
    33     2     1    1
    34     3    12    1
