@<TRIPOS>MOLECULE
ZINC06525403_replica-1.pdb
 28 30 0 0 0
SMALL
GASTEIGER

@<TRIPOS>ATOM
      1  C9        -1.3080   29.6690   56.2630 C.2     0  <0>0        0.1086
      2  C10       -1.3180   29.2440   57.5490 C.3     0  <0>0        0.0742
      3  N1        -1.5150   28.7580   55.2230 N.am    0  <0>0       -0.2784
      4  C8        -0.4800   28.3750   54.4480 C.2     0  <0>0        0.2491
      5  O1         0.6470   28.7440   54.7130 O.2     0  <0>0       -0.2698
      6  H8        -2.4010   28.4020   55.0600 H       0  <0>0        0.1551
      7  C7        -0.7180   27.5080   53.2750 C.ar    0  <0>0        0.0497
      8  C2        -0.2440   26.1950   53.2670 C.ar    0  <0>0       -0.0175
      9  C1         0.5130   25.6580   54.4540 C.3     0  <0>0        0.0312
     10  C3        -0.4750   25.3880   52.1720 C.ar    0  <0>0       -0.0041
     11  C4        -1.1700   25.8800   51.0810 C.ar    0  <0>0       -0.0003
     12  C5        -1.6380   27.1820   51.0810 C.ar    0  <0>0        0.0001
     13  C6        -1.4140   27.9990   52.1680 C.ar    0  <0>0        0.0042
     14  C17       -1.0810   31.0890   55.9630 C.2     0  <0>0        0.3515
     15  O2        -1.0320   31.4650   54.8070 O.2     0  <0>0       -0.2438
     16  O3        -0.9260   31.9750   56.9670 O.3     0  <0>0       -0.4364
     17  C18        0.2860   32.7320   56.9830 C.3     0  <0>0        0.2724
     18  C19        0.5310   33.2580   58.3740 C.ar    0  <0>0        0.1671
     19  O4         0.5820   34.5520   58.7270 O.2     0  <0>0       -0.4509
     20  C22        0.8140   34.6480   60.0470 C.ar    0  <0>0        0.1793
     21  C21        0.9240   33.4060   60.5500 C.ar    0  <0>0        0.0436
     22  C20        0.7410   32.5090   59.4730 C.ar    0  <0>0        0.0400
     23  C11       -1.3140   27.8030   57.8450 C.ar    0  <0>0       -0.0163
     24  C16       -2.5150   27.1350   58.1010 C.ar    0  <0>0       -0.0039
     25  C15       -2.5050   25.7830   58.3720 C.ar    0  <0>0       -0.0003
     26  C14       -1.3070   25.0900   58.4040 C.ar    0  <0>0       -0.0000
     27  C13       -0.1130   25.7450   58.1580 C.ar    0  <0>0       -0.0003
     28  C12       -0.1080   27.0950   57.8800 C.ar    0  <0>0       -0.0039
@<TRIPOS>BOND
     1    11    12   ar
     2    11    10   ar
     3    12    13   ar
     4    13     7   ar
     5    10     8   ar
     6     8     7   ar
     7     8     9    1
     8     7     4    1
     9     4     5    2
    10     4     3   am
    11    15    14    2
    12     6     3    1
    13     3     1    2
    14    14     1    1
    15    14    16    1
    16     1     2    1
    17    16    17    1
    18    17    18    1
    19     2    23    1
    20    23    28   ar
    21    23    24   ar
    22    28    27   ar
    23    24    25   ar
    24    27    26   ar
    25    25    26   ar
    26    18    19   ar
    27    18    22   ar
    28    19    20   ar
    29    22    21   ar
    30    20    21   ar
