@<TRIPOS>MOLECULE
ZINC00178777_replica-1.pdb
 20 21 0 0 0
SMALL
GASTEIGER

@<TRIPOS>ATOM
      1  C6        -0.0950   31.6910   56.8390 C.ar    0  <0>0        0.1881
      2  N2        -0.4010   31.9370   55.5720 N.ar    0  <0>0       -0.1253
      3  N3        -0.4970   31.0140   54.7180 N.ar    0  <0>0       -0.1396
      4  C7        -0.3100   29.7400   55.0380 C.ar    0  <0>0        0.1348
      5  S1         0.0610   29.9080   56.7820 S.2     0  <0>0       -0.0304
      6  N1         0.0580   32.5660   57.9080 N.am    0  <0>0       -0.2628
      7  C5         1.2810   33.0400   58.2190 C.2     0  <0>0        0.2266
      8  O1         2.2470   32.7030   57.5670 O.2     0  <0>0       -0.2747
      9  H10       -0.7140   32.8350   58.4290 H       0  <0>0        0.1568
     10  C2         1.4490   33.9880   59.3790 C.3     0  <0>0        0.0692
     11  C1         2.7740   33.6990   60.0850 C.3     0  <0>0        0.0091
     12  C3         1.4470   35.4280   58.8630 C.3     0  <0>0        0.0091
     13  C4         0.2940   33.7990   60.3640 C.3     0  <0>0        0.0091
     14  C8        -0.3820   28.5270   54.1960 C.ar    0  <0>0        0.0257
     15  C13       -1.0870   28.5500   52.9920 C.ar    0  <0>0        0.0026
     16  C12       -1.1500   27.4140   52.2120 C.ar    0  <0>0        0.0068
     17  C11       -0.5180   26.2530   52.6210 C.ar    0  <0>0        0.0346
     18  C10        0.1870   26.2250   53.8120 C.ar    0  <0>0        0.0068
     19 Br         -0.6100   24.7010   51.5460 Br      0  <0>0       -0.0490
     20  C9         0.2530   27.3520   54.6040 C.ar    0  <0>0        0.0026
@<TRIPOS>BOND
     1    19    17    1
     2    16    17   ar
     3    16    15   ar
     4    17    18   ar
     5    15    14   ar
     6    18    20   ar
     7    14    20   ar
     8    14     4    1
     9     3     4   ar
    10     3     2   ar
    11     4     5   ar
    12     2     1   ar
    13     5     1   ar
    14     1     6    1
    15     8     7    2
    16     6     7   am
    17     6     9    1
    18     7    10    1
    19    12    10    1
    20    10    11    1
    21    10    13    1
