@<TRIPOS>MOLECULE
ZINC15906188_replica-1.pdb
 30 34 0 0 0
SMALL
GASTEIGER

@<TRIPOS>ATOM
      1  C1         5.6880   33.2510   55.1580 C.3     0  <0>0        0.0008
      2  C2         5.3700   34.7140   54.8430 C.3     0  <0>0        0.0109
      3  C3         4.1000   35.1220   55.5870 C.3     0  <0>0        0.0416
      4  C4         4.2860   34.9530   57.0820 C.2     0  <0>0        0.0290
      5  C5         5.4990   35.1330   57.5710 C.2     0  <0>0        0.0554
      6  C6         6.7020   35.4660   56.7680 C.2     0  <0>0        0.0806
      7  N1         7.7590   35.6000   57.4720 N.2     0  <0>0       -0.1776
      8  N2         7.7670   35.4330   58.8620 N.pl3   0  <0>0       -0.1789
      9  P1         6.1880   35.0590   59.2520 P.3     0  <0>0        0.1293
     10  S1         5.4290   36.3460   60.3670 S.3     0  <0>0       -0.0233
     11  C18        6.5610   35.5870   55.2580 C.3     0  <0>0        0.0479
     12  C24        5.1390   34.8640   53.3380 C.3     0  <0>0        0.0008
     13  N3         6.0620   33.5560   59.8960 N.3     0  <0>0       -0.2376
     14  C11        6.6620   32.3990   59.2180 C.3     0  <0>0        0.0776
     15  C10        5.5940   31.3240   59.0270 C.3     0  <0>0        0.0177
     16  C9         4.9520   30.9990   60.3770 C.3     0  <0>0        0.0029
     17  C8         4.2830   32.2550   60.9420 C.3     0  <0>0        0.0177
     18  C7         5.3420   33.3400   61.1580 C.3     0  <0>0        0.0776
     19  C12        8.8520   35.5540   59.7290 C.ar    0  <0>0        0.0746
     20  C17        9.1080   36.7650   60.3610 C.ar    0  <0>0        0.0167
     21  C16       10.1810   36.8800   61.2220 C.ar    0  <0>0        0.0013
     22  C15       11.0070   35.7940   61.4480 C.ar    0  <0>0        0.0001
     23  C14       10.7590   34.5880   60.8170 C.ar    0  <0>0        0.0013
     24  C13        9.6850   34.4640   59.9580 C.ar    0  <0>0        0.0167
     25  N4         3.2240   34.6230   57.9020 N.pl3   0  <0>0       -0.3106
     26  C23        2.8510   33.2180   58.1160 C.3     0  <0>0        0.0905
     27  C22        1.3690   33.0430   57.7970 C.3     0  <0>0        0.0215
     28  C21        0.5500   34.0420   58.6180 C.3     0  <0>0        0.0035
     29  C20        0.9610   35.4680   58.2440 C.3     0  <0>0        0.0215
     30  C19        2.4440   35.6710   58.5730 C.3     0  <0>0        0.0905
@<TRIPOS>BOND
     1    12     2    1
     2     2     1    1
     3     2    11    1
     4     2     3    1
     5    11     6    1
     6     3     4    1
     7     6     7    2
     8     6     5    1
     9     4     5    2
    10     4    25    1
    11     7     8    1
    12     5     9    1
    13    27    26    1
    14    27    28    1
    15    25    26    1
    16    25    30    1
    17    29    30    1
    18    29    28    1
    19     8     9    1
    20     8    19    1
    21    15    14    1
    22    15    16    1
    23    14    13    1
    24     9    13    1
    25     9    10    1
    26    19    24   ar
    27    19    20   ar
    28    13    18    1
    29    24    23   ar
    30    20    21   ar
    31    16    17    1
    32    23    22   ar
    33    17    18    1
    34    21    22   ar
