@<TRIPOS>MOLECULE
ZINC57602949_replica-1.pdb
 21 22 0 0 0
SMALL
GASTEIGER

@<TRIPOS>ATOM
      1  N1         9.0380   34.5540   60.1340 N.pl3   0  <0>0       -0.3285
      2  H13        8.1500   34.6650   60.5080 H       0  <0>0        0.1471
      3  C7        10.0910   34.1290   60.9470 C.ar    0  <0>0        0.0449
      4  C6        11.1780   34.9650   61.1720 C.ar    0  <0>0        0.0140
      5  C5        12.2180   34.5410   61.9760 C.ar    0  <0>0       -0.0030
      6  C4        12.1770   33.2870   62.5590 C.ar    0  <0>0       -0.0224
      7  C9        11.1000   32.4510   62.3320 C.ar    0  <0>0       -0.0030
      8  C8        10.0550   32.8700   61.5320 C.ar    0  <0>0        0.0140
      9  C2        13.3140   32.8290   63.4350 C.3     0  <0>0        0.0224
     10  C1        13.3620   31.3000   63.4540 C.3     0  <0>0        0.0047
     11  C3        14.6340   33.3740   62.8850 C.3     0  <0>0        0.0047
     12  C10        9.2740   34.8340   58.7160 C.3     0  <0>0        0.1280
     13  C11        8.4370   33.8790   57.8620 C.3     0  <0>0        0.2177
     14  N2         7.3330   33.3460   58.6650 N.pl3   0  <0>0        0.0366
     15  O1         7.4120   32.2370   59.1400 O.2     0  <0>0       -0.1309
     16  O2         6.3440   34.0160   58.8520 O.2     0  <0>0       -0.1309
     17  C12        8.8810   36.2560   58.4110 C.ar    0  <0>0        0.0271
     18  S1         8.2650   36.9490   56.8850 S.2     0  <0>0       -0.0891
     19  C15        8.0760   38.6370   57.4340 C.ar    0  <0>0        0.0352
     20  C14        8.4960   38.5630   58.7200 C.ar    0  <0>0        0.0072
     21  C13        8.9080   37.3430   59.2210 C.ar    0  <0>0        0.0044
@<TRIPOS>BOND
     1    18    19   ar
     2    18    17   ar
     3    19    20   ar
     4    13    14    1
     5    13    12    1
     6    17    12    1
     7    17    21   ar
     8    14    16    2
     9    14    15    2
    10    12     1    1
    11    20    21   ar
    12     1     2    1
    13     1     3    1
    14     3     4   ar
    15     3     8   ar
    16     4     5   ar
    17     8     7   ar
    18     5     6   ar
    19     7     6   ar
    20     6     9    1
    21    11     9    1
    22     9    10    1
