@<TRIPOS>MOLECULE
ZINC13510404_replica-1.pdb
 21 21 0 0 0
SMALL
GASTEIGER

@<TRIPOS>ATOM
      1  C9         8.4810   34.1040   59.1870 C.3     0  <0>0        0.0406
      2  C10        9.0220   32.7350   59.6000 C.3     0  <0>0        0.0063
      3  C11        7.4070   34.5500   60.1800 C.3     0  <0>0        0.0063
      4  C8         9.6220   35.1230   59.1770 C.3     0  <0>0        0.0310
      5  C7        10.5730   34.8220   60.3070 C.2     0  <0>0       -0.0342
      6  C6        10.7250   35.6840   61.2820 C.2     0  <0>0       -0.0478
      7  C19        9.8760   36.9270   61.3280 C.3     0  <0>0        0.0260
      8  C5        11.7510   35.4310   62.3560 C.3     0  <0>0        0.0263
      9  C4        12.7240   34.3470   61.8880 C.3     0  <0>0        0.0297
     10  C3        12.5010   33.0900   62.6880 C.2     0  <0>0       -0.0342
     11  C2        13.5180   32.4780   63.2430 C.2     0  <0>0       -0.0478
     12  C1        14.8910   33.0950   63.1860 C.3     0  <0>0        0.0260
     13  C20       13.3130   31.1580   63.9390 C.3     0  <0>0        0.0260
     14  C12        7.8810   34.0100   57.8070 C.2     0  <0>0        0.0720
     15  N1         7.4400   35.0730   57.2220 N.2     0  <0>0       -0.2485
     16  C13        7.4320   36.2720   57.8900 C.ar    0  <0>0        0.0810
     17  C18        8.4490   37.2030   57.6720 C.ar    0  <0>0        0.0191
     18  C17        8.4320   38.4090   58.3430 C.ar    0  <0>0        0.0015
     19  C16        7.4170   38.6910   59.2390 C.ar    0  <0>0        0.0001
     20  C15        6.4090   37.7700   59.4650 C.ar    0  <0>0        0.0015
     21  C14        6.4110   36.5640   58.7950 C.ar    0  <0>0        0.0191
@<TRIPOS>BOND
     1    15    14    2
     2    15    16    1
     3    17    16   ar
     4    17    18   ar
     5    14     1    1
     6    16    21   ar
     7    18    19   ar
     8    21    20   ar
     9     4     1    1
    10     4     5    1
    11     1     2    1
    12     1     3    1
    13    19    20   ar
    14     5     6    2
    15     6     7    1
    16     6     8    1
    17     9     8    1
    18     9    10    1
    19    10    11    2
    20    12    11    1
    21    11    13    1
