@<TRIPOS>MOLECULE
ZINC00709482_replica-1.pdb
 29 33 0 0 0
SMALL
GASTEIGER

@<TRIPOS>ATOM
      1  C9         6.8430   35.2450   56.1470 C.3     0  <0>0        0.1174
      2  C10        7.5130   34.0670   56.8090 C.2     0  <0>0        0.0304
      3  C11        8.2870   34.2130   57.9180 C.2     0  <0>0       -0.0203
      4  C12        8.7380   32.9980   58.6880 C.3     0  <0>0        0.0267
      5  C13        7.8760   31.7800   58.3570 C.3     0  <0>0        0.0128
      6  C14        7.9000   31.5680   56.8390 C.3     0  <0>0        0.0692
      7  C15        7.3360   32.8100   56.2000 C.2     0  <0>0        0.1707
      8  O1         6.7310   32.7250   55.1520 O.2     0  <0>0       -0.2916
      9  C16        8.6350   35.5050   58.3910 C.ar    0  <0>0        0.0105
     10  C17        9.4380   35.7330   59.5910 C.ar    0  <0>0        0.0186
     11  C18       10.1630   34.7310   60.2450 C.ar    0  <0>0        0.0031
     12  C19       10.8070   35.0310   61.4170 C.ar    0  <0>0        0.0207
     13  C20       10.7290   36.3170   61.9430 C.ar    0  <0>0        0.0988
     14  N2        10.0850   37.2650   61.3090 N.ar    0  <0>0       -0.2438
     15  C21        9.4990   37.0450   60.1290 C.ar    0  <0>0        0.0814
     16  C22        8.9480   38.1230   59.4090 C.ar    0  <0>0        0.0204
     17  C23        8.3250   37.9160   58.2250 C.ar    0  <0>0        0.0158
     18  C24        8.1600   36.6310   57.7010 C.ar    0  <0>0        0.0448
     19  N3         7.5430   36.4870   56.4690 N.pl3   0  <0>0       -0.3272
     20  H23        7.5410   37.2270   55.8350 H       0  <0>0        0.1474
     21  C6         5.4160   35.3400   56.6200 C.ar    0  <0>0       -0.0002
     22  C5         5.0490   34.7640   57.8230 C.ar    0  <0>0       -0.0011
     23  C4         3.7410   34.8490   58.2600 C.ar    0  <0>0        0.0143
     24  C3         2.7950   35.5130   57.4890 C.ar    0  <0>0        0.0479
     25  C8         3.1670   36.0900   56.2820 C.ar    0  <0>0        0.0143
     26  C7         4.4780   36.0060   55.8540 C.ar    0  <0>0       -0.0011
     27  N1         1.4710   35.6000   57.9280 N.pl3   0  <0>0       -0.3041
     28  C1         0.4040   35.9170   56.9770 C.3     0  <0>0        0.1122
     29  C2         1.1520   35.3750   59.3400 C.3     0  <0>0        0.1122
@<TRIPOS>BOND
     1     8     7    2
     2    20    19    1
     3    26    25   ar
     4    26    21   ar
     5     1    19    1
     6     1    21    1
     7     1     2    1
     8     7     2    1
     9     7     6    1
    10    25    24   ar
    11    19    18    1
    12    21    22   ar
    13     2     3    2
    14     6     5    1
    15    28    27    1
    16    24    27    1
    17    24    23   ar
    18    18    17   ar
    19    18     9   ar
    20    22    23   ar
    21     3     9    1
    22     3     4    1
    23    27    29    1
    24    17    16   ar
    25     5     4    1
    26     9    10   ar
    27    16    15   ar
    28    10    15   ar
    29    10    11   ar
    30    15    14   ar
    31    11    12   ar
    32    14    13   ar
    33    12    13   ar
