@<TRIPOS>MOLECULE
ZINC63048968_replica-1.pdb
 19 20 0 0 0
SMALL
GASTEIGER

@<TRIPOS>ATOM
      1  C6        -0.1950   30.3410   55.6810 C.3     0  <0>0        0.0972
      2  N3         1.0740   31.0500   55.5040 N.pl3   0  <0>0       -0.2777
      3  C4         1.3140   32.2230   56.1970 C.1     0  <0>0        0.0869
      4  N1         2.4670   32.8520   56.0250 N.2     0  <0>0       -0.2034
      5  N2         0.3850   32.6900   57.0190 N.2     0  <0>0       -0.1810
      6  C3         2.7280   33.9750   56.6730 C.3     0  <0>0        0.1613
      7  C2         1.7790   34.4920   57.5400 C.2     0  <0>0        0.0010
      8  C1         2.0410   35.7700   58.2960 C.3     0  <0>0        0.0301
      9  C5         0.5850   33.8050   57.7010 C.2     0  <0>0        0.1042
     10  H7         1.7460   30.6980   54.9000 H       0  <0>0        0.1583
     11  C7        -0.5330   29.5700   54.4030 C.3     0  <0>0        0.0262
     12  C8         0.1900   28.2220   54.4130 C.3     0  <0>0        0.0241
     13  C9        -0.0600   27.5190   55.7480 C.3     0  <0>0        0.0047
     14  C10       -0.3300   27.3650   53.2890 C.ar    0  <0>0       -0.0224
     15  C15       -1.1410   27.9170   52.3150 C.ar    0  <0>0       -0.0043
     16  C14       -1.6150   27.1320   51.2820 C.ar    0  <0>0       -0.0003
     17  C13       -1.2850   25.7900   51.2260 C.ar    0  <0>0       -0.0000
     18  C12       -0.4770   25.2370   52.2020 C.ar    0  <0>0       -0.0003
     19  C11       -0.0010   26.0240   53.2330 C.ar    0  <0>0       -0.0043
@<TRIPOS>BOND
     1    17    16   ar
     2    17    18   ar
     3    16    15   ar
     4    18    19   ar
     5    15    14   ar
     6    19    14   ar
     7    14    12    1
     8    11    12    1
     9    11     1    1
    10    12    13    1
    11    10     2    1
    12     2     1    1
    13     2     3    1
    14     4     3    2
    15     4     6    1
    16     3     5    2
    17     6     7    1
    18     5     9    1
    19     7     9    2
    20     7     8    1
