@<TRIPOS>MOLECULE
ZINC22309219_replica-1.pdb
 25 28 0 0 0
SMALL
GASTEIGER

@<TRIPOS>ATOM
      1  C1         9.6200   32.8870   60.4910 C.3     0  <0>0        0.0318
      2  C2         9.8500   34.3270   60.8730 C.ar    0  <0>0       -0.0093
      3  C3         8.9700   35.3360   60.4370 C.ar    0  <0>0        0.0750
      4  C4         9.2840   36.6360   60.8520 C.ar    0  <0>0        0.0947
      5  N1         8.5080   37.7030   60.4980 N.ar    0  <0>0       -0.3011
      6  H1         8.7750   38.7150   60.8370 H       0  <0>0        0.1709
      7  C5         7.4130   37.5310   59.7310 C.ar    0  <0>0        0.3347
      8  O1         6.7400   38.4980   59.4290 O.2     0  <0>0       -0.2461
      9  N2         7.0510   36.3140   59.2940 N.ar    0  <0>0       -0.2274
     10  C6         7.7570   35.2110   59.5970 C.ar    0  <0>0        0.2696
     11  O2         7.4050   34.1220   59.1820 O.2     0  <0>0       -0.2664
     12  S1        10.7160   36.4470   61.7910 S.2     0  <0>0       -0.0700
     13  C13       10.9090   34.6800   61.6440 C.ar    0  <0>0        0.0270
     14  C7         5.9040   36.1910   58.4980 C.ar    0  <0>0        0.0711
     15  C12        4.6600   36.0260   59.0920 C.ar    0  <0>0        0.0178
     16  C11        3.5320   35.9040   58.3060 C.ar    0  <0>0        0.0015
     17  C10        3.6400   35.9460   56.9280 C.ar    0  <0>0        0.0001
     18  C9         4.8770   36.1100   56.3330 C.ar    0  <0>0        0.0015
     19  C8         6.0090   36.2390   57.1140 C.ar    0  <0>0        0.0178
     20  C14       11.9600   33.8150   62.2190 C.ar    0  <0>0        0.0057
     21  C19       13.3000   34.1980   62.1500 C.ar    0  <0>0        0.0005
     22  C18       14.2760   33.3860   62.6880 C.ar    0  <0>0        0.0000
     23  C17       13.9290   32.1930   63.2970 C.ar    0  <0>0        0.0000
     24  C16       12.6020   31.8060   63.3690 C.ar    0  <0>0        0.0000
     25  C15       11.6160   32.6130   62.8400 C.ar    0  <0>0        0.0005
@<TRIPOS>BOND
     1    18    17   ar
     2    18    19   ar
     3    17    16   ar
     4    19    14   ar
     5    16    15   ar
     6    14    15   ar
     7    14     9    1
     8    11    10    2
     9     9    10   ar
    10     9     7   ar
    11     8     7    2
    12    10     3   ar
    13     7     5   ar
    14     3     4   ar
    15     3     2   ar
    16     1     2    1
    17     5     6    1
    18     5     4   ar
    19     4    12   ar
    20     2    13   ar
    21    13    12   ar
    22    13    20    1
    23    21    20   ar
    24    21    22   ar
    25    20    25   ar
    26    22    23   ar
    27    25    24   ar
    28    23    24   ar
