@<TRIPOS>MOLECULE
ZINC62090530_replica-1.pdb
 27 28 0 0 0
SMALL
GASTEIGER

@<TRIPOS>ATOM
      1  C9         2.2590   32.5050   57.5600 C.3     0  <0>0        0.1020
      2  C10        3.7380   32.1860   57.3300 C.3     0  <0>0        0.0115
      3  C8         2.0610   33.0050   58.9920 C.3     0  <0>0        0.1833
      4  S1         0.7690   34.2790   59.0150 S.O2    0  <0>0        0.0736
      5  O1         0.1170   34.2920   60.2770 O.2     0  <0>0       -0.1528
      6  O2         0.0160   34.2340   57.8110 O.2     0  <0>0       -0.1528
      7  N1         1.5880   35.7170   58.9470 N.pl3   0  <0>0       -0.1006
      8  C5         2.7210   35.8380   58.1400 C.ar    0  <0>0        0.0906
      9  C4         2.5820   35.9950   56.7660 C.ar    0  <0>0        0.0177
     10  C3         3.7050   36.1150   55.9700 C.ar    0  <0>0       -0.0029
     11  C2         4.9640   36.0800   56.5380 C.ar    0  <0>0       -0.0218
     12  C1         6.1860   36.2120   55.6660 C.3     0  <0>0        0.0310
     13  C7         5.1060   35.9190   57.9050 C.ar    0  <0>0       -0.0029
     14  C6         3.9880   35.8040   58.7070 C.ar    0  <0>0        0.0177
     15  C11        1.4370   31.2610   57.3450 C.2     0  <0>0        0.2238
     16  O3         1.0790   30.5980   58.2950 O.2     0  <0>0       -0.2751
     17  N2         1.0990   30.8840   56.0960 N.am    0  <0>0       -0.3040
     18  H14        1.3860   31.4130   55.3350 H       0  <0>0        0.1494
     19  C12        0.3010   29.6740   55.8860 C.3     0  <0>0        0.0941
     20  C13       -0.5780   29.8510   54.6470 C.3     0  <0>0        0.0476
     21  C14       -0.5810   28.5740   53.8450 C.ar    0  <0>0       -0.0204
     22  C19        0.0570   27.4500   54.3350 C.ar    0  <0>0       -0.0033
     23  C18        0.0510   26.2780   53.6030 C.ar    0  <0>0        0.0111
     24  C17       -0.5840   26.2330   52.3750 C.ar    0  <0>0        0.0577
     25  C16       -1.2180   27.3600   51.8820 C.ar    0  <0>0        0.0111
     26 Cl         -0.5860   24.7620   51.4520 Cl      0  <0>0       -0.0822
     27  C15       -1.2160   28.5300   52.6180 C.ar    0  <0>0       -0.0033
@<TRIPOS>BOND
     1    26    24    1
     2    25    24   ar
     3    25    27   ar
     4    24    23   ar
     5    27    21   ar
     6    23    22   ar
     7    21    22   ar
     8    21    20    1
     9    20    19    1
    10    18    17    1
    11    12    11    1
    12    19    17    1
    13    10    11   ar
    14    10     9   ar
    15    17    15   am
    16    11    13   ar
    17     9     8   ar
    18     2     1    1
    19    15     1    1
    20    15    16    2
    21     1     3    1
    22     6     4    2
    23    13    14   ar
    24     8    14   ar
    25     8     7    1
    26     7     4    1
    27     3     4    1
    28     4     5    2
