@<TRIPOS>MOLECULE
ZINC35429053_replica-1.pdb
 17 18 0 0 0
SMALL
GASTEIGER

@<TRIPOS>ATOM
      1  C7         6.1170   35.4770   57.5280 C.2     0  <0>0        0.1820
      2  C8         5.3480   35.8160   58.5830 C.3     0  <0>0        0.1627
      3  N2         4.0120   35.7110   58.1830 N.pl3   0  <0>0       -0.2483
      4  C9         2.7600   35.8970   58.7260 C.2     0  <0>0        0.0753
      5  C10        1.6640   35.6860   58.0000 C.2     0  <0>0        0.0553
      6  S1         2.3530   35.1890   56.4290 S.3     0  <0>0       -0.0379
      7  C11        4.0690   35.3040   56.8780 C.2     0  <0>0        0.2201
      8  N3         5.3080   35.1740   56.4970 N.2     0  <0>0       -0.3681
      9  N1         7.5200   35.4510   57.5070 N.pl3   0  <0>0       -0.2856
     10  C3         8.2510   36.2430   56.5140 C.3     0  <0>0        0.0929
     11  C2         7.7000   37.6700   56.4930 C.3     0  <0>0        0.0215
     12  C1         8.6890   38.6080   57.1890 C.3     0  <0>0        0.0018
     13  C4         8.2520   34.6350   58.4770 C.3     0  <0>0        0.0929
     14  C5         9.6580   35.2070   58.6690 C.3     0  <0>0        0.0215
     15  C6         9.6840   36.0910   59.9170 C.3     0  <0>0        0.0018
     16  C12        5.8400   36.2310   59.9450 C.3     0  <0>0        0.1236
     17 Cl          6.4260   37.9360   59.8780 Cl      0  <0>0       -0.1114
@<TRIPOS>BOND
     1     6     7    1
     2     6     5    1
     3    11    10    1
     4    11    12    1
     5     8     7    2
     6     8     1    2
     7    10     9    1
     8     7     3    1
     9     9     1    1
    10     9    13    1
    11     1     2    1
    12     5     4    2
    13     3     2    1
    14     3     4    1
    15    13    14    1
    16     2    16    1
    17    14    15    1
    18    17    16    1
