@<TRIPOS>MOLECULE
ZINC32004134_replica-1.pdb
 18 19 0 0 0
SMALL
GASTEIGER

@<TRIPOS>ATOM
      1  C7         9.4950   35.2010   59.7930 C.ar    0  <0>0        0.0108
      2  C8         9.5280   34.7470   58.4750 C.ar    0  <0>0        0.0017
      3  C9         8.7230   35.3320   57.5160 C.ar    0  <0>0        0.0117
      4  C10        7.8740   36.3680   57.8570 C.ar    0  <0>0        0.0649
      5  C11        7.8350   36.8370   59.1730 C.ar    0  <0>0        0.1008
      6  C12        8.6480   36.2490   60.1450 C.ar    0  <0>0        0.0648
      7 Cl          8.6020   36.8190   61.7830 Cl      0  <0>0       -0.0820
      8 Cl          6.8610   37.0930   56.6480 Cl      0  <0>0       -0.0820
      9  C6        10.3620   34.5710   60.8180 C.ar    0  <0>0        0.0010
     10  C1        10.1050   33.2700   61.2460 C.ar    0  <0>0        0.0023
     11  C2        10.9180   32.6860   62.1960 C.ar    0  <0>0        0.0296
     12  C3        11.9810   33.3950   62.7310 C.ar    0  <0>0        0.1401
     13  C4        12.2370   34.6900   62.3120 C.ar    0  <0>0        0.0296
     14  F1        12.7710   32.8210   63.6660 F       0  <0>0       -0.2042
     15  C5        11.4330   35.2800   61.3590 C.ar    0  <0>0        0.0023
     16  C13        6.9340   37.9480   59.5380 C.2     0  <0>0        0.3894
     17  O1         7.2500   39.0940   59.2890 O.co2   0  <0>0       -0.2405
     18  O2         5.7590   37.6900   60.1450 O.co2   0  <0>0       -0.2405
@<TRIPOS>BOND
     1     8     4    1
     2     3     4   ar
     3     3     2   ar
     4     4     5   ar
     5     2     1   ar
     6     5    16    1
     7     5     6   ar
     8    17    16   ar
     9    16    18   ar
    10     1     6   ar
    11     1     9    1
    12     6     7    1
    13     9    10   ar
    14     9    15   ar
    15    10    11   ar
    16    15    13   ar
    17    11    12   ar
    18    13    12   ar
    19    12    14    1
