@<TRIPOS>MOLECULE
ZINC09008380_replica-1.pdb
 25 28 0 0 0
SMALL
GASTEIGER

@<TRIPOS>ATOM
      1  N1         9.6560   35.0490   60.9140 N.am    0  <0>0       -0.2152
      2  C7         9.2820   33.7290   60.8430 C.2     0  <0>0        0.1695
      3  N2        10.0000   32.7540   61.3580 N.2     0  <0>0       -0.3943
      4  C8        11.1580   32.9950   61.9990 C.2     0  <0>0        0.1227
      5  C9        11.9200   31.9560   62.5460 C.2     0  <0>0        0.0288
      6  C10       13.0910   32.2380   63.1900 C.2     0  <0>0        0.0078
      7  C11       13.5430   33.5470   63.3130 C.2     0  <0>0        0.0267
      8  C12       12.8160   34.5920   62.7830 C.2     0  <0>0       -0.0045
      9  C13       11.6180   34.3270   62.1220 C.3     0  <0>0        0.1518
     10  C14       10.8020   35.4020   61.5400 C.2     0  <0>0        0.2451
     11  O1        11.1470   36.5670   61.6150 O.2     0  <0>0       -0.2733
     12  I1        15.3450   33.9340   64.3080 I       0  <0>0       -0.0428
     13  C15        8.0720   33.4010   60.1820 C.3     0  <0>0        0.0835
     14  C16        8.0960   32.9680   58.8990 C.3     0  <0>0        0.0734
     15  C17        7.5040   33.7500   57.8760 C.ar    0  <0>0        0.1235
     16  O2         8.0060   33.9540   56.6400 O.2     0  <0>0       -0.4547
     17  C20        7.1750   34.7460   55.9460 C.ar    0  <0>0        0.1791
     18  C19        6.1200   35.0680   56.7250 C.ar    0  <0>0        0.0434
     19  C18        6.3140   34.4400   57.9660 C.ar    0  <0>0        0.0362
     20  C4         8.8450   36.0340   60.3370 C.ar    0  <0>0        0.0601
     21  C3         7.6950   36.4580   60.9870 C.ar    0  <0>0        0.0153
     22  C2         6.8970   37.4300   60.4150 C.ar    0  <0>0        0.0013
     23  C1         7.2430   37.9800   59.1950 C.ar    0  <0>0        0.0001
     24  C6         8.3880   37.5590   58.5440 C.ar    0  <0>0        0.0013
     25  C5         9.1940   36.5930   59.1140 C.ar    0  <0>0        0.0153
@<TRIPOS>BOND
     1    17    16   ar
     2    17    18   ar
     3    16    15   ar
     4    18    19   ar
     5    15    19   ar
     6    15    14    1
     7    24    25   ar
     8    24    23   ar
     9    14    13    1
    10    25    20   ar
    11    23    22   ar
    12    13     2    1
    13    20     1    1
    14    20    21   ar
    15    22    21   ar
    16     2     1    1
    17     2     3    2
    18     1    10   am
    19     3     4    2
    20    10    11    2
    21    10     9    1
    22     4     9    1
    23     4     5    1
    24     9     8    1
    25     5     6    2
    26     8     7    2
    27     6     7    1
    28     7    12    1
