@<TRIPOS>MOLECULE
ZINC15084706_replica-1.pdb
 25 28 0 0 0
SMALL
GASTEIGER

@<TRIPOS>ATOM
      1  C1         7.2890   38.3230   55.8100 C.3     0  <0>0        0.0494
      2  C2         7.6910   37.2820   56.8220 C.2     0  <0>0        0.0639
      3  C3         7.1810   35.9950   56.9070 C.3     0  <0>0        0.1207
      4  C4         7.8070   35.3550   57.9640 C.2     0  <0>0        0.1889
      5  N1         8.6740   36.2500   58.5090 N.pl3   0  <0>0       -0.1664
      6  N2         8.5820   37.4410   57.7730 N.2     0  <0>0       -0.1802
      7  N3         7.5390   34.0820   58.3550 N.2     0  <0>0       -0.3873
      8  C11        6.9720   33.2170   57.5740 C.2     0  <0>0        0.1363
      9  S1         6.5560   33.5780   55.9020 S.3     0  <0>0       -0.0823
     10  C12        6.1340   35.3370   56.0420 C.3     0  <0>0        0.0894
     11  C19        6.6520   31.8490   58.1190 C.3     0  <0>0        0.0736
     12  C5         9.5070   36.0250   59.6140 C.ar    0  <0>0        0.0763
     13  C10       10.2810   34.8730   59.6770 C.ar    0  <0>0        0.0191
     14  C9        11.1020   34.6530   60.7660 C.ar    0  <0>0        0.0310
     15  C8        11.1520   35.5790   61.7940 C.ar    0  <0>0        0.1402
     16  C7        10.3800   36.7270   61.7340 C.ar    0  <0>0        0.0310
     17  F1        11.9550   35.3620   62.8590 F       0  <0>0       -0.2042
     18  C6         9.5630   36.9540   60.6440 C.ar    0  <0>0        0.0191
     19  C13        4.7780   35.4870   56.6810 C.ar    0  <0>0       -0.0111
     20  C18        4.6750   35.9090   57.9940 C.ar    0  <0>0       -0.0011
     21  C17        3.4320   36.0480   58.5810 C.ar    0  <0>0        0.0293
     22  C16        2.2880   35.7630   57.8540 C.ar    0  <0>0        0.1401
     23  C15        2.3930   35.3400   56.5400 C.ar    0  <0>0        0.0293
     24  F2         1.0720   35.8980   58.4260 F       0  <0>0       -0.2042
     25  C14        3.6370   35.2080   55.9530 C.ar    0  <0>0       -0.0011
@<TRIPOS>BOND
     1     1     2    1
     2     9    10    1
     3     9     8    1
     4    25    23   ar
     5    25    19   ar
     6    10    19    1
     7    10     3    1
     8    23    22   ar
     9    19    20   ar
    10     2     3    1
    11     2     6    2
    12     3     4    1
    13     8    11    1
    14     8     7    2
    15     6     5    1
    16    22    24    1
    17    22    21   ar
    18     4     7    2
    19     4     5    1
    20    20    21   ar
    21     5    12    1
    22    12    13   ar
    23    12    18   ar
    24    13    14   ar
    25    18    16   ar
    26    14    15   ar
    27    16    15   ar
    28    15    17    1
