@<TRIPOS>MOLECULE
ZINC45024943_replica-1.pdb
 20 21 0 0 0
SMALL
GASTEIGER

@<TRIPOS>ATOM
      1  C6        11.3010   34.4550   61.7550 C.2     0  <0>0        0.0290
      2  C7        11.2380   35.6900   62.3950 C.2     0  <0>0        0.0135
      3  C8        10.5800   36.7490   61.8060 C.2     0  <0>0        0.0408
      4  C9         9.9760   36.5860   60.5680 C.2     0  <0>0        0.1735
      5  C10       10.0340   35.3440   59.9180 C.2     0  <0>0        0.1521
      6  C11       10.7070   34.2800   60.5180 C.3     0  <0>0        0.1030
      7  N2         9.3620   35.4900   58.7430 N.2     0  <0>0       -0.3720
      8  C12        8.9200   36.7090   58.6630 C.2     0  <0>0        0.2561
      9  O2         9.2740   37.4060   59.7530 O.2     0  <0>0       -0.4281
     10  N1        11.9730   33.3880   62.3630 N.pl3   0  <0>0       -0.3369
     11  H12       11.5820   32.5010   62.3530 H       0  <0>0        0.1465
     12  C2        13.2640   33.6140   63.0160 C.3     0  <0>0        0.0713
     13  C1        14.2580   34.1770   61.9980 C.3     0  <0>0        0.0212
     14  C3        13.7950   32.2890   63.5680 C.3     0  <0>0        0.0515
     15  C4        12.9340   31.1370   63.0450 C.3     0  <0>0        0.1440
     16  O1        12.0550   30.6910   64.0800 O.3     0  <0>0       -0.3510
     17  C5        12.0360   29.2730   64.2560 C.3     0  <0>0        0.1741
     18  C13        8.1260   37.2630   57.5080 C.3     0  <0>0        0.0896
     19  C14        8.5570   38.7060   57.2380 C.3     0  <0>0        0.0109
     20  C15        8.3770   36.4130   56.2610 C.3     0  <0>0        0.0109
@<TRIPOS>BOND
     1    20    18    1
     2    19    18    1
     3    18     8    1
     4     8     7    2
     5     8     9    1
     6     7     5    2
     7     9     4    1
     8     5     6    1
     9     5     4    1
    10     6     1    1
    11     4     3    2
    12     1    10    1
    13     1     2    2
    14     3     2    1
    15    13    12    1
    16    11    10    1
    17    10    12    1
    18    12    14    1
    19    15    14    1
    20    15    16    1
    21    16    17    1
