@<TRIPOS>MOLECULE
ZINC00538088_replica-1.pdb
 23 26 0 0 0
SMALL
GASTEIGER

@<TRIPOS>ATOM
      1  C8         9.6240   34.6900   60.3940 C.ar    0  <0>0        0.0651
      2  C9         9.6530   35.9090   59.7320 C.ar    0  <0>0        0.0102
      3  C10        8.5470   36.3040   59.0350 C.ar    0  <0>0        0.0116
      4  C11        7.4370   35.4710   59.0170 C.ar    0  <0>0        0.0832
      5  S2         7.9840   34.0960   60.0160 S.2     0  <0>0       -0.0793
      6  C7        10.6760   34.0520   61.2010 C.2     0  <0>0        0.1631
      7  N1        11.9050   34.4660   61.4340 N.2     0  <0>0       -0.3983
      8  C5        12.7670   33.7780   62.1970 C.2     0  <0>0        0.1238
      9  C4        12.2740   32.5680   62.7440 C.3     0  <0>0        0.1282
     10  C6        14.1040   34.1100   62.5230 C.2     0  <0>0        0.0288
     11  C3        13.0380   31.7550   63.5450 C.2     0  <0>0       -0.0082
     12  S1        10.6100   32.5220   62.1240 S.3     0  <0>0       -0.0711
     13  C2        14.3400   32.1170   63.8370 C.2     0  <0>0       -0.0032
     14  C1        14.8510   33.2980   63.3160 C.2     0  <0>0        0.0020
     15  C12        6.1460   35.6690   58.3510 C.2     0  <0>0        0.2569
     16  O1         6.0480   36.4720   57.4410 O.2     0  <0>0       -0.2692
     17  N2         5.0680   34.9620   58.7450 N.am    0  <0>0       -0.2602
     18  H7         5.1470   34.3230   59.4690 H       0  <0>0        0.1571
     19  C13        3.8460   35.1490   58.1120 C.ar    0  <0>0        0.1658
     20  S3         3.2250   34.3750   56.6880 S.2     0  <0>0       -0.0508
     21  C15        1.6490   35.2160   56.6350 C.ar    0  <0>0        0.0588
     22  C14        1.7540   36.0150   57.7240 C.ar    0  <0>0        0.1079
     23  N3         2.8570   35.9570   58.4440 N.ar    0  <0>0       -0.2224
@<TRIPOS>BOND
     1    21    20   ar
     2    21    22   ar
     3    20    19   ar
     4    16    15    2
     5    22    23   ar
     6    19    23   ar
     7    19    17    1
     8    15    17   am
     9    15     4    1
    10    17    18    1
    11     4     3   ar
    12     4     5   ar
    13     3     2   ar
    14     2     1   ar
    15     5     1   ar
    16     1     6    1
    17     6     7    2
    18     6    12    1
    19     7     8    2
    20    12     9    1
    21     8    10    1
    22     8     9    1
    23    10    14    2
    24     9    11    1
    25    14    13    1
    26    11    13    2
