@<TRIPOS>MOLECULE
ZINC07195715_replica-1.pdb
 19 21 0 0 0
SMALL
GASTEIGER

@<TRIPOS>ATOM
      1  C6         9.3120   34.6510   59.6190 C.ar    0  <0>0       -0.0014
      2  C7         9.3470   36.0310   59.5450 C.ar    0  <0>0        0.0371
      3  C8         8.8060   36.6820   58.4480 C.ar    0  <0>0        0.1721
      4  C9         8.2190   35.9450   57.4260 C.ar    0  <0>0        0.1729
      5  C10        8.1820   34.5610   57.5070 C.ar    0  <0>0        0.0464
      6  C11        8.7280   33.9170   58.6030 C.ar    0  <0>0        0.0347
      7 Br          8.6740   32.0300   58.7120 Br      0  <0>0       -0.0492
      8  O1         7.6830   36.5650   56.3390 O.3     0  <0>0       -0.4684
      9  C12        7.4070   37.9640   56.4680 C.3     0  <0>0        0.2526
     10  C13        8.6280   38.6370   57.1070 C.3     0  <0>0        0.2526
     11  O2         8.8490   38.0420   58.3900 O.3     0  <0>0       -0.4684
     12  C5         9.9060   33.9450   60.8100 C.3     0  <0>0        0.0919
     13  S2        11.2120   34.9720   61.5300 S.3     0  <0>0       -0.0713
     14  C4        12.1860   33.7280   62.3090 C.2     0  <0>0        0.1827
     15  S1        13.8880   33.7300   62.6540 S.3     0  <0>0       -0.0688
     16  C3        13.9710   32.1230   63.4280 C.3     0  <0>0        0.1193
     17  C2        12.6770   31.7330   63.3410 C.2     0  <0>0        0.0996
     18  C1        12.2370   30.3950   63.8770 C.3     0  <0>0        0.0625
     19  N1        11.8080   32.5540   62.7810 N.2     0  <0>0       -0.3971
@<TRIPOS>BOND
     1     8     9    1
     2     8     4    1
     3     9    10    1
     4    10    11    1
     5     4     5   ar
     6     4     3   ar
     7     5     6   ar
     8    11     3    1
     9     3     2   ar
    10     6     7    1
    11     6     1   ar
    12     2     1   ar
    13     1    12    1
    14    12    13    1
    15    13    14    1
    16    14    15    1
    17    14    19    2
    18    15    16    1
    19    19    17    2
    20    17    16    1
    21    17    18    1
