@<TRIPOS>MOLECULE
ZINC04087618_replica-1.pdb
 30 31 0 0 0
SMALL
GASTEIGER

@<TRIPOS>ATOM
      1  C7         9.8150   36.3490   60.6560 C.3     0  <0>0       -0.0233
      2  C6        10.0510   34.8730   60.9840 C.3     0  <0>0       -0.0019
      3  C5        11.5520   34.6170   61.1290 C.3     0  <0>0       -0.0001
      4  C4        11.9970   34.9880   62.5450 C.3     0  <0>0       -0.0000
      5  C2        12.8910   33.8790   63.1060 C.3     0  <0>0       -0.0000
      6  C1        12.1850   32.5300   62.9540 C.3     0  <0>0        0.0000
      7  C3        14.2130   33.8520   62.3360 C.3     0  <0>0        0.0000
      8  C19        9.4930   34.0040   59.8540 C.3     0  <0>0        0.0048
      9  C23        8.1200   33.4570   60.2580 C.3     0  <0>0        0.0273
     10  C22        7.5350   32.6560   59.0910 C.3     0  <0>0        0.0929
     11  O2         7.4500   33.4930   57.9360 O.3     0  <0>0       -0.3585
     12  C24        6.1380   32.1570   59.4660 C.3     0  <0>0        0.0296
     13  C25        8.4410   31.4590   58.7910 C.3     0  <0>0        0.0296
     14  C21        8.7090   33.9940   57.4850 C.3     0  <0>0        0.1419
     15  C20        9.3400   34.8500   58.5860 C.3     0  <0>0        0.0321
     16  C8         9.0780   37.0180   61.8190 C.3     0  <0>0       -0.0813
     17  N1         7.6730   37.2480   61.4320 N.4     0  <0>0        0.3864
     18  H43        7.3260   38.0910   61.9050 H       0  <0>0       -0.0840
     19  H44        7.1080   36.4390   61.7140 H       0  <0>0       -0.0840
     20  C9         7.5680   37.4310   59.9720 C.3     0  <0>0       -0.0543
     21  C10        6.3650   36.6780   59.4660 C.ar    0  <0>0       -0.0435
     22  C15        6.0810   36.6610   58.1130 C.ar    0  <0>0       -0.0032
     23  C14        4.9780   35.9730   57.6460 C.ar    0  <0>0        0.0365
     24  C13        4.1570   35.2960   58.5360 C.ar    0  <0>0        0.1384
     25  C12        4.4440   35.3150   59.8930 C.ar    0  <0>0        0.0365
     26  C11        5.5500   36.0010   60.3540 C.ar    0  <0>0       -0.0032
     27  O1         3.0710   34.6180   58.0790 O.3     0  <0>0       -0.4792
     28  C16        1.7900   35.1980   58.3330 C.3     0  <0>0        0.1661
     29  C17        1.2190   35.7630   57.0310 C.3     0  <0>0        0.0472
     30  C18        0.8440   34.1280   58.8820 C.3     0  <0>0        0.0472
@<TRIPOS>BOND
     1    29    28    1
     2    14    11    1
     3    14    15    1
     4    23    22   ar
     5    23    24   ar
     6    11    10    1
     7    27    28    1
     8    27    24    1
     9    22    21   ar
    10    28    30    1
    11    24    25   ar
    12    15     8    1
    13    13    10    1
    14    10    12    1
    15    10     9    1
    16    21    20    1
    17    21    26   ar
    18     8     9    1
    19     8     2    1
    20    25    26   ar
    21    20    17    1
    22     1     2    1
    23     1    16    1
    24     2     3    1
    25     3     4    1
    26    17    19    1
    27    17    16    1
    28    17    18    1
    29     7     5    1
    30     4     5    1
    31     6     5    1
