@<TRIPOS>MOLECULE
ZINC21258964_replica-1.pdb
 37 41 0 0 0
SMALL
GASTEIGER

@<TRIPOS>ATOM
      1  C11       -0.0700   31.5750   58.6230 C.3     0  <0>0        0.1186
      2  C12       -0.3610   30.9570   57.2760 C.2     0  <0>0        0.0436
      3  C13       -0.0390   31.4820   56.0810 C.2     0  <0>0        0.0262
      4  C14       -0.3940   30.7500   54.7970 C.3     0  <0>0        0.0459
      5  C15       -0.3580   29.2410   55.0290 C.3     0  <0>0        0.0386
      6  C16       -1.3740   28.9130   56.1290 C.3     0  <0>0        0.0737
      7  C17       -1.0280   29.7120   57.3500 C.2     0  <0>0        0.1722
      8  O2        -1.3330   29.2740   58.4430 O.2     0  <0>0       -0.2916
      9  N1         0.5980   32.6660   55.9030 N.pl3   0  <0>0       -0.3150
     10  C25        1.7280   33.0760   56.6030 C.ar    0  <0>0        0.0614
     11  C26        2.9330   33.3340   55.9750 C.ar    0  <0>0        0.0158
     12  C27        3.9860   33.8490   56.7120 C.ar    0  <0>0        0.0014
     13  C28        3.8340   34.1010   58.0630 C.ar    0  <0>0        0.0013
     14  C29        2.6360   33.8220   58.6970 C.ar    0  <0>0        0.0156
     15  C30        1.5860   33.2900   57.9660 C.ar    0  <0>0        0.0586
     16  N2         0.3760   32.9510   58.5680 N.pl3   0  <0>0       -0.3262
     17  H27        0.2240   33.3860   55.1590 H       0  <0>0        0.1520
     18  H32       -0.2430   33.7480   59.0070 H       0  <0>0        0.1474
     19  C8         0.9950   30.7550   59.3040 C.ar    0  <0>0       -0.0001
     20  C7         0.9720   30.5980   60.6780 C.ar    0  <0>0        0.0008
     21  C6         1.9470   29.8480   61.3050 C.ar    0  <0>0        0.0366
     22  C5         2.9480   29.2490   60.5550 C.ar    0  <0>0        0.1384
     23  C10        2.9690   29.4060   59.1770 C.ar    0  <0>0        0.0366
     24  C9         1.9890   30.1530   58.5540 C.ar    0  <0>0        0.0008
     25  O1         3.9080   28.5080   61.1700 O.3     0  <0>0       -0.4792
     26  C3         5.2670   28.8040   60.8410 C.3     0  <0>0        0.1660
     27  C4         5.9230   29.5510   62.0030 C.3     0  <0>0        0.0472
     28  C2         6.0240   27.5000   60.5800 C.3     0  <0>0        0.0435
     29  C1         5.0310   26.3380   60.5170 C.3     0  <0>0        0.0038
     30  C18       -0.7300   28.5210   53.7590 C.ar    0  <0>0        0.0123
     31  C23       -0.1670   27.2860   53.4710 C.ar    0  <0>0        0.1347
     32  C22       -0.5080   26.6270   52.2980 C.ar    0  <0>0        0.0366
     33  C21       -1.4150   27.1970   51.4250 C.ar    0  <0>0        0.0031
     34  C20       -1.9760   28.4280   51.7160 C.ar    0  <0>0       -0.0001
     35  C19       -1.6330   29.0880   52.8810 C.ar    0  <0>0       -0.0013
     36  O3         0.7210   26.7250   54.3320 O.3     0  <0>0       -0.4717
     37  C24        0.5120   25.3550   54.6800 C.3     0  <0>0        0.2525
@<TRIPOS>BOND
     1    33    34   ar
     2    33    32   ar
     3    34    35   ar
     4    32    31   ar
     5    35    30   ar
     6    31    30   ar
     7    31    36    1
     8    30     5    1
     9    36    37    1
    10     4     5    1
    11     4     3    1
    12     5     6    1
    13    17     9    1
    14     9     3    1
    15     9    10    1
    16    11    10   ar
    17    11    12   ar
    18     3     2    2
    19     6     7    1
    20    10    15   ar
    21    12    13   ar
    22     2     7    1
    23     2     1    1
    24     7     8    2
    25    15    16    1
    26    15    14   ar
    27    13    14   ar
    28    24    23   ar
    29    24    19   ar
    30    16     1    1
    31    16    18    1
    32     1    19    1
    33    23    22   ar
    34    19    20   ar
    35    29    28    1
    36    22    25    1
    37    22    21   ar
    38    28    26    1
    39    20    21   ar
    40    26    25    1
    41    26    27    1
