@<TRIPOS>MOLECULE
ZINC60451652_replica-1.pdb
 28 29 0 0 0
SMALL
GASTEIGER

@<TRIPOS>ATOM
      1  N2         2.0070   32.6430   55.9120 N.pl3   0  <0>0       -0.3303
      2  H10        2.5800   32.5740   55.1320 H       0  <0>0        0.1469
      3  C9         1.0930   31.5480   56.2480 C.3     0  <0>0        0.1086
      4  C8         0.0130   31.4350   55.1690 C.3     0  <0>0        0.1109
      5  N1         0.1780   30.1730   54.4440 N.am    0  <0>0       -0.2991
      6  C7        -0.8210   29.2680   54.4330 C.2     0  <0>0        0.2481
      7  O1        -1.8580   29.4990   55.0240 O.2     0  <0>0       -0.2701
      8  H5         1.0050   29.9880   53.9720 H       0  <0>0        0.1498
      9  C5        -0.6550   27.9950   53.7020 C.ar    0  <0>0        0.0808
     10  C4        -1.1880   27.8480   52.4170 C.ar    0  <0>0        0.1444
     11  C3        -1.0280   26.6530   51.7390 C.ar    0  <0>0        0.0298
     12  F4        -1.8570   28.8700   51.8410 F       0  <0>0       -0.2040
     13  C2        -0.3420   25.6080   52.3300 C.ar    0  <0>0        0.0023
     14  C1         0.1880   25.7480   53.6010 C.ar    0  <0>0        0.0003
     15  C6         0.0370   26.9330   54.2890 C.ar    0  <0>0        0.0068
     16  C10        2.0520   33.7850   56.7130 C.ar    0  <0>0        0.0623
     17  C15        3.1660   34.6150   56.6800 C.ar    0  <0>0        0.1272
     18  C14        3.2050   35.7480   57.4690 C.ar    0  <0>0        0.0199
     19  C13        2.1420   36.0490   58.3010 C.ar    0  <0>0        0.0014
     20  C12        1.0340   35.2240   58.3400 C.ar    0  <0>0        0.0013
     21  C11        0.9860   34.0930   57.5490 C.ar    0  <0>0        0.0156
     22  S1         4.5250   34.2260   55.6280 S.O2    0  <0>0        0.0932
     23  O2         4.9950   32.9690   56.0940 O.2     0  <0>0       -0.1611
     24  O3         4.0140   34.3640   54.3090 O.2     0  <0>0       -0.1611
     25  C16        5.7560   35.5160   55.9610 C.3     0  <0>0        0.5262
     26  F1         6.2020   35.4060   57.2820 F       0  <0>0       -0.1500
     27  F2         6.8390   35.3630   55.0890 F       0  <0>0       -0.1500
     28  F3         5.1770   36.7750   55.7670 F       0  <0>0       -0.1500
@<TRIPOS>BOND
     1    11    13   ar
     2    11    10   ar
     3    12    10    1
     4    13    14   ar
     5    10     9   ar
     6    14    15   ar
     7     9    15   ar
     8     9     6    1
     9     8     5    1
    10    24    22    2
    11     6     5   am
    12     6     7    2
    13     5     4    1
    14    27    25    1
    15     2     1    1
    16     4     3    1
    17    22    25    1
    18    22    23    2
    19    22    17    1
    20    28    25    1
    21     1     3    1
    22     1    16    1
    23    25    26    1
    24    17    16   ar
    25    17    18   ar
    26    16    21   ar
    27    18    19   ar
    28    21    20   ar
    29    19    20   ar
