@<TRIPOS>MOLECULE
ZINC59104978_replica-1.pdb
 28 31 0 0 0
SMALL
GASTEIGER

@<TRIPOS>ATOM
      1  C6         5.4030   36.2730   58.6410 C.ar    0  <0>0        0.0193
      2  C7         6.3150   36.8700   59.4640 C.ar    0  <0>0        0.0762
      3  N3         7.4350   37.1780   58.7590 N.ar    0  <0>0       -0.3218
      4  C8         7.2940   36.7920   57.4410 C.ar    0  <0>0        0.0602
      5  C9         6.0260   36.2060   57.3050 C.ar    0  <0>0        0.0173
      6  C10        5.6120   35.7150   56.0700 C.ar    0  <0>0        0.0015
      7  C11        6.4540   35.8050   54.9830 C.ar    0  <0>0        0.0001
      8  C12        7.7100   36.3800   55.1170 C.ar    0  <0>0        0.0015
      9  C13        8.1290   36.8760   56.3320 C.ar    0  <0>0        0.0172
     10  C5         4.0720   35.7910   59.0130 C.2     0  <0>0        0.0127
     11  C4         3.9010   34.5010   59.4100 C.2     0  <0>0        0.0859
     12  C3         2.6940   33.8340   59.9200 C.2     0  <0>0        0.2603
     13  S1         5.0870   33.1650   59.4580 S.3     0  <0>0       -0.0484
     14  N2         2.8010   32.5560   60.2390 N.am    0  <0>0       -0.2332
     15  O1         1.6420   34.4340   60.0440 O.2     0  <0>0       -0.2690
     16  C2         4.0040   31.8940   60.0920 C.2     0  <0>0        0.1648
     17  C21        1.6340   31.8350   60.7530 C.3     0  <0>0        0.1223
     18  N1         4.2830   30.6470   60.3560 N.2     0  <0>0       -0.2482
     19  C1         3.2160   29.7270   60.7580 C.3     0  <0>0        0.1537
     20  C14        8.6230   37.8270   59.3170 C.3     0  <0>0        0.1328
     21  C15        9.4850   36.7960   60.0000 C.ar    0  <0>0        0.0013
     22  C20       10.0790   37.0880   61.2140 C.ar    0  <0>0        0.0099
     23  C19       10.8660   36.1410   61.8430 C.ar    0  <0>0        0.0679
     24  C18       11.0650   34.9040   61.2530 C.ar    0  <0>0        0.0682
     25 Cl         11.6070   36.5030   63.3710 Cl      0  <0>0       -0.0814
     26  C17       10.4730   34.6150   60.0360 C.ar    0  <0>0        0.0120
     27 Cl         12.0560   33.7160   62.0390 Cl      0  <0>0       -0.0814
     28  C16        9.6840   35.5620   59.4110 C.ar    0  <0>0       -0.0015
@<TRIPOS>BOND
     1     7     8   ar
     2     7     6   ar
     3     8     9   ar
     4     6     5   ar
     5     9     4   ar
     6     5     4   ar
     7     5     1   ar
     8     4     3   ar
     9     1    10    1
    10     1     2   ar
    11     3    20    1
    12     3     2   ar
    13    10    11    2
    14    20    21    1
    15    11    13    1
    16    11    12    1
    17    28    21   ar
    18    28    26   ar
    19    13    16    1
    20    12    15    2
    21    12    14   am
    22    21    22   ar
    23    26    24   ar
    24    16    14    1
    25    16    18    2
    26    14    17    1
    27    18    19    1
    28    22    23   ar
    29    24    23   ar
    30    24    27    1
    31    23    25    1
