@<TRIPOS>MOLECULE
ZINC39865418_replica-1.pdb
 24 26 0 0 0
SMALL
GASTEIGER

@<TRIPOS>ATOM
      1  N2         3.9570   34.5210   59.7150 N.2     0  <0>0       -0.1889
      2  C5         5.0680   35.0940   59.3040 C.2     0  <0>0        0.1725
      3  N3         5.3000   35.7620   58.1220 N.am    0  <0>0       -0.2303
      4  C6         6.4870   36.2850   57.8630 C.2     0  <0>0        0.2605
      5  O1         6.7080   36.8770   56.8240 O.2     0  <0>0       -0.2690
      6  C7         7.5300   36.1160   58.8940 C.2     0  <0>0        0.0859
      7  C8         8.8180   36.5440   58.8940 C.2     0  <0>0        0.0111
      8  S2         6.6380   35.2050   60.1460 S.3     0  <0>0       -0.0480
      9  C9         9.7360   36.1120   59.9560 C.ar    0  <0>0        0.0007
     10  C14       10.3810   34.8720   59.8680 C.ar    0  <0>0        0.0005
     11  C13       11.2450   34.4760   60.8660 C.ar    0  <0>0        0.0067
     12  C12       11.4680   35.2960   61.9590 C.ar    0  <0>0        0.0346
     13  C11       10.8300   36.5210   62.0570 C.ar    0  <0>0        0.0067
     14 Br         12.6500   34.7400   63.3270 Br      0  <0>0       -0.0490
     15  C10        9.9660   36.9340   61.0650 C.ar    0  <0>0        0.0005
     16  C15        4.2200   35.8930   57.1400 C.3     0  <0>0        0.1267
     17  C16        4.5790   35.1280   55.8930 C.2     0  <0>0       -0.0043
     18  C17        3.8040   35.1930   54.8390 C.2     0  <0>0       -0.0031
     19  C4         2.8950   34.4180   58.8760 C.2     0  <0>0        0.2424
     20  S1         1.5600   35.5710   58.5870 S.3     0  <0>0       -0.0554
     21  C3         0.6880   34.5980   57.3660 C.3     0  <0>0        0.1204
     22  C2         1.4870   33.5040   57.2980 C.2     0  <0>0        0.1009
     23  C1         1.1390   32.3720   56.3650 C.3     0  <0>0        0.0625
     24  N1         2.5640   33.4290   58.0500 N.2     0  <0>0       -0.3846
@<TRIPOS>BOND
     1    18    17    2
     2    17    16    1
     3    23    22    1
     4     5     4    2
     5    16     3    1
     6    22    21    1
     7    22    24    2
     8    21    20    1
     9     4     3   am
    10     4     6    1
    11    24    19    2
    12     3     2    1
    13    20    19    1
    14    19     1    1
    15     6     7    2
    16     6     8    1
    17     7     9    1
    18     2     1    2
    19     2     8    1
    20    10     9   ar
    21    10    11   ar
    22     9    15   ar
    23    11    12   ar
    24    15    13   ar
    25    12    13   ar
    26    12    14    1
