@<TRIPOS>MOLECULE
ZINC00430345_replica-1.pdb
 21 23 0 0 0
SMALL
GASTEIGER

@<TRIPOS>ATOM
      1  C7        -0.6210   28.9330   54.3740 C.2     0  <0>0        0.2848
      2  N1         0.4200   29.7150   54.4560 N.2     0  <0>0       -0.3648
      3  C8         0.3610   30.4160   55.6250 C.2     0  <0>0        0.1923
      4  C9         1.2650   31.3470   56.0870 C.3     0  <0>0        0.0922
      5  C16       -0.8750   29.9620   56.2920 C.2     0  <0>0        0.3738
      6  O1        -1.3110   30.3290   57.3660 O.2     0  <0>0       -0.2419
      7  O2        -1.4160   29.0510   55.4540 O.3     0  <0>0       -0.3911
      8  C10        0.9580   32.1360   57.2840 C.ar    0  <0>0       -0.0147
      9  C15        1.2970   31.6490   58.5540 C.ar    0  <0>0       -0.0015
     10  C14        1.0050   32.3960   59.6740 C.ar    0  <0>0        0.0293
     11  C13        0.3780   33.6270   59.5470 C.ar    0  <0>0        0.1401
     12  C12        0.0400   34.1150   58.2930 C.ar    0  <0>0        0.0293
     13  F1         0.0950   34.3530   60.6500 F       0  <0>0       -0.2042
     14  C11        0.3300   33.3830   57.1640 C.ar    0  <0>0       -0.0015
     15  C5        -0.8920   28.0270   53.2400 C.ar    0  <0>0        0.0727
     16  C4        -0.4070   26.7160   53.2590 C.ar    0  <0>0        0.0401
     17  C3        -0.6650   25.8750   52.1950 C.ar    0  <0>0        0.0069
     18 Br          0.5980   26.0980   54.7350 Br      0  <0>0       -0.0488
     19  C2        -1.4000   26.3250   51.1140 C.ar    0  <0>0        0.0005
     20  C1        -1.8830   27.6230   51.0900 C.ar    0  <0>0        0.0002
     21  C6        -1.6380   28.4730   52.1470 C.ar    0  <0>0        0.0063
@<TRIPOS>BOND
     1    20    19   ar
     2    20    21   ar
     3    19    17   ar
     4    21    15   ar
     5    17    16   ar
     6    15    16   ar
     7    15     1    1
     8    16    18    1
     9     1     2    2
    10     1     7    1
    11     2     3    2
    12     7     5    1
    13     3     4    1
    14     3     5    1
    15     4     8    1
    16     5     6    2
    17    14     8   ar
    18    14    12   ar
    19     8     9   ar
    20    12    11   ar
    21     9    10   ar
    22    11    10   ar
    23    11    13    1
