@<TRIPOS>MOLECULE
ZINC04580597_replica-1.pdb
 28 30 0 0 0
SMALL
GASTEIGER

@<TRIPOS>ATOM
      1  C9         8.0720   36.6530   58.3190 C.3     0  <0>0        0.1056
      2  C6         9.0760   36.2910   59.3820 C.ar    0  <0>0       -0.0038
      3  C5         9.7790   35.1040   59.2920 C.ar    0  <0>0        0.0004
      4  C4        10.7020   34.7710   60.2650 C.ar    0  <0>0        0.0366
      5  C3        10.9210   35.6290   61.3340 C.ar    0  <0>0        0.1385
      6  C8        10.2090   36.8160   61.4250 C.ar    0  <0>0        0.0366
      7  C7         9.2930   37.1480   60.4460 C.ar    0  <0>0        0.0004
      8  O1        11.8270   35.3020   62.2930 O.3     0  <0>0       -0.4755
      9  C2        12.3520   33.9740   62.2660 C.3     0  <0>0        0.2055
     10  C1        13.8800   34.0290   62.2290 C.3     0  <0>0        0.0512
     11  C10        8.6600   36.3530   56.9380 C.3     0  <0>0        0.1381
     12  C11        7.7700   36.9430   55.8740 C.2     0  <0>0        0.3669
     13  O2         7.7570   36.4610   54.7540 O.co2   0  <0>0       -0.2456
     14  O3         7.0620   37.9010   56.1340 O.co2   0  <0>0       -0.2456
     15  N1         6.8510   35.8660   58.5110 N.am    0  <0>0       -0.2977
     16  C12        5.8130   36.3870   59.1940 C.2     0  <0>0        0.2529
     17  O4         5.9210   37.4740   59.7270 O.2     0  <0>0       -0.2696
     18  H13        6.7920   34.9680   58.1470 H       0  <0>0        0.1500
     19  C13        4.5520   35.6410   59.2920 C.ar    0  <0>0        0.0933
     20  S1         3.0060   35.9550   58.4590 S.2     0  <0>0       -0.0816
     21  C20        2.0670   34.6130   59.1420 C.ar    0  <0>0        0.0304
     22  C15        2.9890   33.9700   60.0020 C.ar    0  <0>0        0.0172
     23  C19        0.7710   34.1680   58.9900 C.ar    0  <0>0        0.0065
     24  C14        4.2730   34.5430   60.0470 C.ar    0  <0>0        0.0685
     25  C16        2.5080   32.8350   60.7070 C.ar    0  <0>0        0.0014
     26 Cl          5.4990   33.8520   61.0630 Cl      0  <0>0       -0.0816
     27  C17        1.2290   32.4090   60.5470 C.ar    0  <0>0        0.0001
     28  C18        0.3450   33.0590   59.6950 C.ar    0  <0>0        0.0005
@<TRIPOS>BOND
     1    13    12   ar
     2    12    14   ar
     3    12    11    1
     4    11     1    1
     5    18    15    1
     6     1    15    1
     7     1     2    1
     8    20    21   ar
     9    20    19   ar
    10    15    16   am
    11    23    21   ar
    12    23    28   ar
    13    21    22   ar
    14    16    19    1
    15    16    17    2
    16     3     2   ar
    17     3     4   ar
    18    19    24   ar
    19     2     7   ar
    20    28    27   ar
    21    22    24   ar
    22    22    25   ar
    23    24    26    1
    24     4     5   ar
    25     7     6   ar
    26    27    25   ar
    27     5     6   ar
    28     5     8    1
    29    10     9    1
    30     9     8    1
