@<TRIPOS>MOLECULE
ZINC20013424_replica-1.pdb
 22 23 0 0 0
SMALL
GASTEIGER

@<TRIPOS>ATOM
      1  C1        11.5250   36.4450   62.4790 C.3     0  <0>0        0.0261
      2  C2        10.9150   35.2740   61.7060 C.3     0  <0>0        0.0919
      3  C3        10.1010   35.8020   60.5530 C.ar    0  <0>0       -0.0044
      4  C8         9.5220   37.0550   60.6340 C.ar    0  <0>0        0.0004
      5  C7         8.7750   37.5410   59.5800 C.ar    0  <0>0        0.0368
      6  C6         8.6050   36.7720   58.4380 C.ar    0  <0>0        0.1443
      7  C5         9.1860   35.5150   58.3600 C.ar    0  <0>0        0.0368
      8  C4         9.9380   35.0350   59.4150 C.ar    0  <0>0        0.0004
      9  O1         7.8710   37.2490   57.3980 O.3     0  <0>0       -0.4236
     10  C9         7.9770   38.6450   57.1160 C.3     0  <0>0        0.5087
     11  F1         9.2880   38.9450   56.7310 F       0  <0>0       -0.1550
     12  F2         7.0990   38.9800   56.0800 F       0  <0>0       -0.1550
     13  N1        11.9870   34.4150   61.1940 N.pl3   0  <0>0       -0.3305
     14  H10       12.1450   34.3200   60.1100 H       0  <0>0        0.1471
     15  C10       12.8070   33.7180   62.0830 C.ar    0  <0>0        0.0493
     16  C15       14.1000   34.1600   62.3290 C.ar    0  <0>0        0.0441
     17  C14       14.9090   33.4710   63.2150 C.ar    0  <0>0        0.1436
     18  C13       14.4300   32.3410   63.8580 C.ar    0  <0>0        0.0593
     19  F3        16.1680   33.9000   63.4540 F       0  <0>0       -0.2041
     20  C12       13.1410   31.8990   63.6140 C.ar    0  <0>0        0.1436
     21  C11       12.3290   32.5840   62.7290 C.ar    0  <0>0        0.0441
     22  F4        12.6760   30.7960   64.2400 F       0  <0>0       -0.2041
@<TRIPOS>BOND
     1    12    10    1
     2    11    10    1
     3    10     9    1
     4     9     6    1
     5     7     6   ar
     6     7     8   ar
     7     6     5   ar
     8     8     3   ar
     9     5     4   ar
    10    14    13    1
    11     3     4   ar
    12     3     2    1
    13    13     2    1
    14    13    15    1
    15     2     1    1
    16    15    16   ar
    17    15    21   ar
    18    16    17   ar
    19    21    20   ar
    20    17    19    1
    21    17    18   ar
    22    20    18   ar
    23    20    22    1
