@<TRIPOS>MOLECULE
ZINC62751960_replica-1.pdb
 20 21 0 0 0
SMALL
GASTEIGER

@<TRIPOS>ATOM
      1  C3         7.8540   38.2670   59.5160 C.3     0  <0>0       -0.0020
      2  C4         8.2020   39.0290   58.2350 C.3     0  <0>0        0.0004
      3  C5         8.6080   38.0360   57.1450 C.3     0  <0>0        0.0092
      4  C6         7.4490   37.0770   56.8700 C.3     0  <0>0        0.0847
      5  C7         7.1020   36.3150   58.1500 C.3     0  <0>0       -0.0471
      6  C8         6.6940   37.3090   59.2400 C.3     0  <0>0       -0.0203
      7  N1         5.9870   35.3950   57.8860 N.4     0  <0>0        0.3899
      8  H29        6.1410   34.9240   57.0070 H       0  <0>0       -0.0795
      9  C9         5.9050   34.4030   58.9650 C.3     0  <0>0       -0.0772
     10  C10        7.2600   33.7110   59.1260 C.3     0  <0>0       -0.0250
     11  C11        4.7310   36.1530   57.8200 C.3     0  <0>0       -0.0579
     12  C15        4.1040   36.0160   56.4210 C.3     0  <0>0       -0.0208
     13  C14        2.7240   35.3560   56.6210 C.3     0  <0>0       -0.0022
     14  C13        2.3510   35.6900   58.0870 C.3     0  <0>0       -0.0022
     15  C12        3.7100   35.5720   58.8200 C.3     0  <0>0       -0.0208
     16  C16        7.8490   36.0980   55.7960 C.2     0  <0>0        0.3623
     17  O1         7.6120   36.3480   54.6260 O.co2   0  <0>0       -0.2458
     18  O2         8.4080   35.0590   56.0960 O.co2   0  <0>0       -0.2458
     19  C2         9.0740   37.4700   59.9820 C.3     0  <0>0       -0.0001
     20  C1         8.8310   36.9490   61.4010 C.3     0  <0>0       -0.0000
@<TRIPOS>BOND
     1    17    16   ar
     2    16    18   ar
     3    16     4    1
     4    12    13    1
     5    12    11    1
     6    13    14    1
     7     4     3    1
     8     4     5    1
     9     8     7    1
    10     3     2    1
    11    11     7    1
    12    11    15    1
    13     7     5    1
    14     7     9    1
    15    14    15    1
    16     5     6    1
    17     2     1    1
    18     9    10    1
    19     6     1    1
    20     1    19    1
    21    19    20    1
