@<TRIPOS>MOLECULE
ZINC33300679_replica-1.pdb
 28 31 0 0 0
SMALL
GASTEIGER

@<TRIPOS>ATOM
      1  N1        -0.1760   28.6170   55.6190 N.ar    0  <0>0       -0.2295
      2  C8        -0.7600   28.3870   56.8410 C.ar    0  <0>0        0.0844
      3  C9        -1.5760   27.3880   57.3620 C.ar    0  <0>0        0.0192
      4  C10       -1.9980   27.4660   58.6700 C.ar    0  <0>0        0.0015
      5  C11       -1.6230   28.5330   59.4750 C.ar    0  <0>0        0.0001
      6  C12       -0.8170   29.5230   58.9850 C.ar    0  <0>0        0.0032
      7  C13       -0.3790   29.4630   57.6650 C.ar    0  <0>0        0.0415
      8  C14        0.4600   30.3050   56.8000 C.ar    0  <0>0        0.1561
      9  N2         0.5050   29.7060   55.6300 N.ar    0  <0>0       -0.1605
     10  C15        1.1210   31.5670   57.1710 C.2     0  <0>0        0.2691
     11  O1         2.2590   31.5550   57.6040 O.2     0  <0>0       -0.2681
     12  N3         0.4660   32.7370   57.0320 N.am    0  <0>0       -0.2773
     13  H12       -0.5330   32.7560   56.5730 H       0  <0>0        0.1553
     14  C16        1.0580   33.9270   57.4720 C.ar    0  <0>0        0.0806
     15  C21        0.8590   34.3640   58.7770 C.ar    0  <0>0        0.1536
     16  C20        1.4490   35.5370   59.2100 C.ar    0  <0>0        0.0332
     17  F1         0.0940   33.6400   59.6230 F       0  <0>0       -0.2029
     18  C19        2.2270   36.2820   58.3430 C.ar    0  <0>0        0.0320
     19  C18        2.4220   35.8530   57.0400 C.ar    0  <0>0        0.1415
     20  C17        1.8390   34.6770   56.6040 C.ar    0  <0>0        0.0466
     21  F2         3.1830   36.5840   56.1950 F       0  <0>0       -0.2041
     22  C5        -0.3050   27.7750   54.5100 C.ar    0  <0>0        0.0828
     23  C4        -0.9960   28.2070   53.3850 C.ar    0  <0>0        0.0188
     24  C3        -1.1220   27.3720   52.2920 C.ar    0  <0>0       -0.0027
     25  C2        -0.5610   26.1090   52.3160 C.ar    0  <0>0       -0.0218
     26  C1        -0.7000   25.2020   51.1200 C.3     0  <0>0        0.0310
     27  C7         0.1290   25.6760   53.4330 C.ar    0  <0>0       -0.0027
     28  C6         0.2620   26.5070   54.5280 C.ar    0  <0>0        0.0188
@<TRIPOS>BOND
     1    26    25    1
     2    24    25   ar
     3    24    23   ar
     4    25    27   ar
     5    23    22   ar
     6    27    28   ar
     7    22    28   ar
     8    22     1    1
     9     1     9   ar
    10     1     2   ar
    11     9     8   ar
    12    21    19    1
    13    13    12    1
    14    20    19   ar
    15    20    14   ar
    16     8    10    1
    17     8     7   ar
    18     2     3   ar
    19     2     7   ar
    20    12    10   am
    21    12    14    1
    22    19    18   ar
    23    10    11    2
    24     3     4   ar
    25    14    15   ar
    26     7     6   ar
    27    18    16   ar
    28     4     5   ar
    29    15    16   ar
    30    15    17    1
    31     6     5   ar
