@<TRIPOS>MOLECULE
ZINC02627622_replica-1.pdb
 24 26 0 0 0
SMALL
GASTEIGER

@<TRIPOS>ATOM
      1  C7        -1.5730   29.7880   53.8270 C.ar    0  <0>0        0.1865
      2  N2        -2.4400   29.8430   54.8190 N.ar    0  <0>0       -0.1249
      3  N3        -2.1240   30.5350   55.9660 N.ar    0  <0>0       -0.1331
      4  C8        -0.9560   31.1400   56.0670 C.ar    0  <0>0        0.1607
      5  S1        -0.2220   30.7530   54.4850 S.2     0  <0>0       -0.0242
      6  S2        -0.2990   32.0850   57.4020 S.3     0  <0>0       -0.0827
      7  C9         1.4840   31.7600   57.3330 C.3     0  <0>0        0.1114
      8  C10        2.0220   31.5710   58.7530 C.3     0  <0>0        0.2175
      9  O1         2.1330   32.8430   59.3940 O.3     0  <0>0       -0.4722
     10  C11        1.2990   33.0810   60.4410 C.ar    0  <0>0        0.1658
     11  C16        0.5720   34.2640   60.4980 C.ar    0  <0>0        0.1738
     12  C15       -0.2750   34.5030   61.5640 C.ar    0  <0>0        0.0328
     13  F1         0.6950   35.1800   59.5130 F       0  <0>0       -0.2010
     14  C14       -0.4010   33.5640   62.5720 C.ar    0  <0>0        0.0025
     15  C13        0.3220   32.3860   62.5170 C.ar    0  <0>0        0.0033
     16  C12        1.1670   32.1410   61.4520 C.ar    0  <0>0        0.0392
     17  N1        -1.6840   29.1540   52.5950 N.pl3   0  <0>0       -0.2913
     18  H6        -2.0580   29.6300   51.8360 H       0  <0>0        0.1541
     19  C4        -1.2570   27.8310   52.4480 C.ar    0  <0>0        0.0498
     20  C3        -0.4380   27.2550   53.4110 C.ar    0  <0>0        0.0147
     21  C2        -0.0180   25.9470   53.2640 C.ar    0  <0>0        0.0013
     22  C1        -0.4100   25.2140   52.1590 C.ar    0  <0>0        0.0001
     23  C6        -1.2260   25.7840   51.2000 C.ar    0  <0>0        0.0013
     24  C5        -1.6540   27.0900   51.3430 C.ar    0  <0>0        0.0147
@<TRIPOS>BOND
     1    23    24   ar
     2    23    22   ar
     3    24    19   ar
     4    18    17    1
     5    22    21   ar
     6    19    17    1
     7    19    20   ar
     8    17     1    1
     9    21    20   ar
    10     1     5   ar
    11     1     2   ar
    12     5     4   ar
    13     2     3   ar
    14     3     4   ar
    15     4     6    1
    16     7     6    1
    17     7     8    1
    18     8     9    1
    19     9    10    1
    20    13    11    1
    21    10    11   ar
    22    10    16   ar
    23    11    12   ar
    24    16    15   ar
    25    12    14   ar
    26    15    14   ar
