@<TRIPOS>MOLECULE
ZINC13416662_replica-1.pdb
 27 29 0 0 0
SMALL
GASTEIGER

@<TRIPOS>ATOM
      1  N1         0.5140   30.0170   55.9720 N.am    0  <0>0       -0.3015
      2  C13        0.5330   31.3590   55.8480 C.2     0  <0>0        0.2341
      3  O1        -0.4690   31.9490   55.5010 O.2     0  <0>0       -0.2741
      4  H12        1.3150   29.5450   56.2500 H       0  <0>0        0.1497
      5  C2        -0.7140   29.2710   55.6850 C.3     0  <0>0        0.0941
      6  C1        -1.4440   28.9690   56.9960 C.3     0  <0>0        0.0262
      7  C3        -0.3670   27.9790   54.9930 C.ar    0  <0>0       -0.0045
      8  C8        -0.7730   27.7570   53.6660 C.ar    0  <0>0       -0.0024
      9  C7        -0.4380   26.5350   53.0320 C.ar    0  <0>0       -0.0003
     10  C9        -1.5030   28.7250   52.9550 C.ar    0  <0>0       -0.0003
     11  C6         0.2930   25.5680   53.7420 C.ar    0  <0>0       -0.0000
     12  C12       -0.8430   26.3140   51.7040 C.ar    0  <0>0       -0.0000
     13  C5         0.6690   25.8170   55.0270 C.ar    0  <0>0       -0.0003
     14  C4         0.3390   27.0180   55.6500 C.ar    0  <0>0       -0.0027
     15  C11       -1.5550   27.2710   51.0490 C.ar    0  <0>0       -0.0000
     16  C10       -1.8800   28.4750   51.6710 C.ar    0  <0>0       -0.0000
     17  C14        1.7960   32.1260   56.1430 C.3     0  <0>0        0.1498
     18  S1         1.8650   32.5190   57.9080 S.3     0  <0>0       -0.0663
     19  C15        2.9920   33.8740   57.8750 C.2     0  <0>0        0.1829
     20  S2         3.7940   34.6580   59.2010 S.3     0  <0>0       -0.0688
     21  C17        4.6960   35.8680   58.2430 C.3     0  <0>0        0.1199
     22  C16        4.2920   35.5500   56.9900 C.2     0  <0>0        0.1106
     23  N2         3.4470   34.5500   56.8360 N.2     0  <0>0       -0.3965
     24  C18        4.8000   36.3210   55.7980 C.3     0  <0>0        0.1691
     25  C19        6.2760   36.0680   55.6290 C.2     0  <0>0        0.3716
     26  O2         6.6750   34.9500   55.4000 O.co2   0  <0>0       -0.2452
     27  O3         7.1480   37.0830   55.7320 O.co2   0  <0>0       -0.2452
@<TRIPOS>BOND
     1    15    16   ar
     2    15    12   ar
     3    16    10   ar
     4    12     9   ar
     5    10     8   ar
     6     9     8   ar
     7     9    11   ar
     8     8     7   ar
     9    11    13   ar
    10     7    14   ar
    11     7     5    1
    12    13    14   ar
    13    26    25   ar
    14     3     2    2
    15    25    27   ar
    16    25    24    1
    17     5     1    1
    18     5     6    1
    19    24    22    1
    20     2     1   am
    21     2    17    1
    22     1     4    1
    23    17    18    1
    24    23    22    2
    25    23    19    2
    26    22    21    1
    27    19    18    1
    28    19    20    1
    29    21    20    1
