@<TRIPOS>MOLECULE
1bvr_THT_A_1.pdb
 24 23 0 0 0
SMALL
GASTEIGER

@<TRIPOS>ATOM
      1  C1        21.1210   15.2180   13.7310 C.3   1302  THT1302     0.0964
      2  C2        21.0310   14.1440   12.6400 C.2   1302  THT1302     0.2419
      3  O2        21.7070   14.2440   11.6010 O.2   1302  THT1302    -0.2733
      4  N3        20.2210   13.1050   12.8490 N.am  1302  THT1302    -0.2045
      5  C4        19.1960   12.7080   11.9210 C.3   1302  THT1302     0.1272
      6  C5        18.9400   13.7260   10.8250 C.3   1302  THT1302     0.0887
      7  S6        17.2950   14.4590   11.0230 S.3   1302  THT1302    -0.0709
      8  C7        16.0510   13.6290    9.9850 C.2   1302  THT1302     0.2213
      9  O7        16.2430   12.4830    9.5780 O.2   1302  THT1302    -0.2797
     10  C8        14.7640   14.3560    9.6280 C.2   1302  THT1302     0.0441
     11  C9        13.7940   13.7290    8.8740 C.2   1302  THT1302    -0.0223
     12  C10       12.5240   14.4760    8.4710 C.3   1302  THT1302     0.0262
     13  C11       12.5230   14.5450    6.9450 C.3   1302  THT1302     0.0047
     14  C12       12.4290   15.9550    6.4230 C.3   1302  THT1302     0.0003
     15  C13       13.0320   15.9560    5.0270 C.3   1302  THT1302     0.0000
     16  C14       13.6500   17.3160    4.7380 C.3   1302  THT1302     0.0000
     17  C15       14.8380   17.5650    5.6710 C.3   1302  THT1302     0.0000
     18  C16       16.1640   17.2960    4.9420 C.3   1302  THT1302     0.0000
     19  C17       17.2120   16.8070    5.9300 C.3   1302  THT1302     0.0000
     20  C18       17.2610   17.7410    7.1240 C.3   1302  THT1302     0.0000
     21  C19       18.4360   18.6720    6.9590 C.3   1302  THT1302     0.0000
     22  C20       19.7460   17.9490    7.2590 C.3   1302  THT1302     0.0000
     23  C21       20.0780   18.0880    8.7410 C.3   1302  THT1302     0.0000
     24  C22       21.3510   18.9050    8.8980 C.3   1302  THT1302     0.0000
@<TRIPOS>BOND
     1    16    15    1
     2    16    17    1
     3    18    17    1
     4    18    19    1
     5    15    14    1
     6    19    20    1
     7    14    13    1
     8    13    12    1
     9    21    20    1
    10    21    22    1
    11    22    23    1
    12    12    11    1
    13    23    24    1
    14    11    10    2
    15     9     8    2
    16    10     8    1
    17     8     7    1
    18     6     7    1
    19     6     5    1
    20     3     2    2
    21     5     4    1
    22     2     4   am
    23     2     1    1
@<TRIPOS>MOLECULE
1c14_TCL_A_1.pdb
 17 18 0 0 0
SMALL
GASTEIGER

@<TRIPOS>ATOM
      1  C1         3.2070   23.0950  134.2020 C.ar  502  TCL502      0.0566
      2  C2         3.3860   22.4660  132.9630 C.ar  502  TCL502      0.0611
      3  C6         3.2250   22.3210  135.3850 C.ar  502  TCL502      0.2307
      4  C5         3.4200   20.9490  135.3160 C.ar  502  TCL502      0.1840
      5  C4         3.5940   20.3170  134.0830 C.ar  502  TCL502      0.0417
      6  C3         3.5710   21.0850  132.8990 C.ar  502  TCL502      0.0147
      7  C11        0.0820   18.6000  138.2000 C.ar  502  TCL502      0.0587
      8  C10        1.3590   18.3310  138.7610 C.ar  502  TCL502      0.0259
      9  C9         2.5070   18.8940  138.1790 C.ar  502  TCL502      0.0929
     10  C8         2.3740   19.7320  137.0330 C.ar  502  TCL502      0.1559
     11  C12       -0.0480   19.4350  137.0600 C.ar  502  TCL502      0.0146
     12  C13        1.1000   20.0010  136.4770 C.ar  502  TCL502      0.0392
     13  O7         3.5100   20.2460  136.4780 O.3   502  TCL502     -0.4494
     14 CL14        3.3890   23.3920  131.5180 Cl    502  TCL502     -0.0821
     15 CL15       -1.3260   17.8840  138.9020 Cl    502  TCL502     -0.0822
     16 CL16        4.0650   18.5300  138.8380 Cl    502  TCL502     -0.0790
     17  O17        3.0190   22.8910  136.6190 O.3   502  TCL502     -0.2833
@<TRIPOS>BOND
     1    14     2    1
     2     6     2   ar
     3     6     5   ar
     4     2     1   ar
     5     5     4   ar
     6     1     3   ar
     7     4     3   ar
     8     4    13    1
     9     3    17    1
    10    12    10   ar
    11    12    11   ar
    12    13    10    1
    13    10     9   ar
    14    11     7   ar
    15     9     8   ar
    16     9    16    1
    17     7     8   ar
    18     7    15    1
@<TRIPOS>MOLECULE
1fwn_PEP_A_1.pdb
 10 9 0 0 0
SMALL
GASTEIGER

@<TRIPOS>ATOM
      1  C1        32.2720   51.6820   22.5110 C.2   1268  PEP1268     0.4216
      2  O1        33.0900   52.1710   23.3600 O.co2 1268  PEP1268    -0.2371
      3  O2'       31.0820   51.7480   22.6190 O.co2 1268  PEP1268    -0.2371
      4  C2        32.9630   50.9850   21.3200 C.2   1268  PEP1268     0.2283
      5  C3        34.2920   50.7020   21.2380 C.2   1268  PEP1268     0.0477
      6  O2        31.9760   50.4710   20.4690 O.2   1268  PEP1268    -0.3930
      7  P         32.1070   49.4580   19.2560 P.3   1268  PEP1268     0.5889
      8  O1P       32.7840   48.2480   19.7300 O.3   1268  PEP1268    -0.1039
      9  O2P       32.8480   50.0930   18.1270 O.2   1268  PEP1268    -0.2114
     10  O3P       30.5950   49.3870   18.8730 O.3   1268  PEP1268    -0.1039
@<TRIPOS>BOND
     1     9     7    2
     2    10     7    1
     3     7     8    1
     4     7     6    1
     5     6     4    1
     6     5     4    2
     7     4     1    1
     8     1     3   ar
     9     1     2   ar
@<TRIPOS>MOLECULE
1fwt_PEP_A_1.pdb
 10 9 0 0 0
SMALL
GASTEIGER

@<TRIPOS>ATOM
      1  C1        32.3520   51.5370   22.4710 C.2   1268  PEP1268     0.4216
      2  O1        33.1640   52.0570   23.3090 O.co2 1268  PEP1268    -0.2371
      3  O2'       31.1670   51.5400   22.6060 O.co2 1268  PEP1268    -0.2371
      4  C2        33.0160   50.8570   21.2550 C.2   1268  PEP1268     0.2283
      5  C3        34.3450   50.6000   21.1270 C.2   1268  PEP1268     0.0477
      6  O2        32.0030   50.3530   20.4290 O.2   1268  PEP1268    -0.3930
      7  P         32.1190   49.3250   19.2280 P.3   1268  PEP1268     0.5889
      8  O1P       32.7950   48.1210   19.7210 O.3   1268  PEP1268    -0.1039
      9  O2P       32.8460   49.9440   18.0910 O.2   1268  PEP1268    -0.2114
     10  O3P       30.6060   49.2590   18.8490 O.3   1268  PEP1268    -0.1039
@<TRIPOS>BOND
     1     9     7    2
     2    10     7    1
     3     7     8    1
     4     7     6    1
     5     6     4    1
     6     5     4    2
     7     4     1    1
     8     1     3   ar
     9     1     2   ar
@<TRIPOS>MOLECULE
1fxq_PEP_A_1.pdb
 10 9 0 0 0
SMALL
GASTEIGER

@<TRIPOS>ATOM
      1  C1        32.4440   51.4470   22.5550 C.2   1268  PEP1268     0.4216
      2  O1        33.2470   51.9270   23.4320 O.co2 1268  PEP1268    -0.2371
      3  O2'       31.2590   51.5490   22.7040 O.co2 1268  PEP1268    -0.2371
      4  C2        33.1400   50.7990   21.3460 C.2   1268  PEP1268     0.2283
      5  C3        34.4400   50.4140   21.3680 C.2   1268  PEP1268     0.0477
      6  O2        32.1920   50.3630   20.4180 O.2   1268  PEP1268    -0.3930
      7  P         32.2580   49.3700   19.1870 P.3   1268  PEP1268     0.5889
      8  O1P       32.8540   48.1100   19.6470 O.3   1268  PEP1268    -0.1039
      9  O2P       32.8960   50.1070   18.0810 O.2   1268  PEP1268    -0.2114
     10  O3P       30.7790   49.1630   18.7410 O.3   1268  PEP1268    -0.1039
@<TRIPOS>BOND
     1     9     7    2
     2    10     7    1
     3     7     8    1
     4     7     6    1
     5     6     4    1
     6     4     5    2
     7     4     1    1
     8     1     3   ar
     9     1     2   ar
@<TRIPOS>MOLECULE
1lx6_ZAM_A_1.pdb
 28 30 0 0 0
SMALL
GASTEIGER

@<TRIPOS>ATOM
      1  C13        1.6280   18.6920  137.9950 C.3   502  ZAM502      0.1215
      2  C21        0.5510   16.4280  138.2540 C.2   502  ZAM502      0.2264
      3  C27        2.6990   22.3650  134.6720 C.2   502  ZAM502      0.2493
      4  C30        2.6570   21.8430  132.1820 C.3   502  ZAM502      0.1376
      5  C33        3.1520   24.1290  132.9870 C.3   502  ZAM502      0.1156
      6  C01        3.2210   18.3140  135.9900 C.ar  502  ZAM502      0.0867
      7  C02        2.2990   19.1770  136.7000 C.ar  502  ZAM502      0.0146
      8  C03        2.0900   20.4960  136.2170 C.ar  502  ZAM502      0.0032
      9  C04        2.7800   20.9540  135.0920 C.ar  502  ZAM502      0.0534
     10  C05        3.6640   20.1220  134.4180 C.ar  502  ZAM502      0.0059
     11  C06        3.8990   18.8100  134.8440 C.ar  502  ZAM502      0.0179
     12  N10        3.5080   16.9930  136.3720 N.pl3 502  ZAM502     -0.1283
     13  N16        0.4780   17.7760  137.8460 N.am  502  ZAM502     -0.2736
     14  C17       -0.6780   18.3290  137.1330 C.3   502  ZAM502      0.1152
     15  O22        1.5000   15.9540  138.9110 O.2   502  ZAM502     -0.2748
     16  C23       -0.5900   15.5270  137.8620 C.3   502  ZAM502      0.0948
     17  N28        2.8590   22.7490  133.3260 N.am  502  ZAM502     -0.2687
     18  O29        2.5510   23.1770  135.5670 O.2   502  ZAM502     -0.2699
     19  C37        1.2280   21.8550  131.7910 C.ar  502  ZAM502      0.0574
     20  C38        0.2010   21.0440  132.3500 C.ar  502  ZAM502      0.0159
     21  C39       -0.9850   21.5070  131.6960 C.ar  502  ZAM502      0.0170
     22  C40       -0.6520   22.5570  130.8080 C.ar  502  ZAM502      0.0597
     23  N41        0.7310   22.7740  130.8710 N.ar  502  ZAM502     -0.3271
     24  C43        1.5010   23.7540  130.0920 C.3   502  ZAM502      0.1302
     25  C47       -2.3920   21.2210  131.7930 C.ar  502  ZAM502      0.0015
     26  C48       -3.3270   21.9380  131.0300 C.ar  502  ZAM502      0.0001
     27  C51       -1.5530   23.2930  130.0390 C.ar  502  ZAM502      0.0172
     28  C52       -2.9090   22.9750  130.1680 C.ar  502  ZAM502      0.0015
@<TRIPOS>BOND
     1    27    28   ar
     2    27    22   ar
     3    24    23    1
     4    28    26   ar
     5    22    23   ar
     6    22    21   ar
     7    23    19   ar
     8    26    25   ar
     9    21    25   ar
    10    21    20   ar
    11    19     4    1
    12    19    20   ar
    13     4    17    1
    14     5    17    1
    15    17     3   am
    16    10    11   ar
    17    10     9   ar
    18     3     9    1
    19     3    18    2
    20    11     6   ar
    21     9     8   ar
    22     6    12    1
    23     6     7   ar
    24     8     7   ar
    25     7     1    1
    26    14    13    1
    27    13     1    1
    28    13     2   am
    29    16     2    1
    30     2    15    2
@<TRIPOS>MOLECULE
1lxc_AYM_A_1.pdb
 24 26 0 0 0
SMALL
GASTEIGER

@<TRIPOS>ATOM
      1  N01       -2.0870   16.1000  137.0360 N.pl3 302  AYM302     -0.1072
      2  C02       -1.4430   17.3190  136.7350 C.ar  302  AYM302      0.1697
      3  N03       -1.1610   18.3620  137.7440 N.ar  302  AYM302     -0.2259
      4  C04       -0.4970   19.5920  137.3670 C.ar  302  AYM302      0.1004
      5  C05       -0.1090   19.8100  136.0310 C.ar  302  AYM302      0.0194
      6  C06       -0.4020   18.7270  134.9880 C.ar  302  AYM302      0.0045
      7  C07       -1.0520   17.5210  135.3580 C.ar  302  AYM302      0.0376
      8  C08        0.5600   21.0710  135.6180 C.2   302  AYM302      0.0062
      9  C09        1.7790   21.0840  134.9170 C.2   302  AYM302      0.0580
     10  C10        2.3850   22.3960  134.5280 C.2   302  AYM302      0.2495
     11  O11        2.5970   23.1650  135.4560 O.2   302  AYM302     -0.2699
     12  N12        2.6970   22.7590  133.1770 N.am  302  AYM302     -0.2687
     13  C13        3.2750   24.0710  132.9220 C.3   302  AYM302      0.1156
     14  C14        2.4760   21.9070  131.9550 C.3   302  AYM302      0.1376
     15  C15        1.1250   22.2270  131.4100 C.ar  302  AYM302      0.0574
     16  C16       -0.0860   21.5910  131.8190 C.ar  302  AYM302      0.0159
     17  C17       -1.0960   22.2360  131.0520 C.ar  302  AYM302      0.0170
     18  C18       -0.4870   23.2320  130.2030 C.ar  302  AYM302      0.0597
     19  N19        0.9100   23.2210  130.4270 N.ar  302  AYM302     -0.3271
     20  C20        1.9200   24.0870  129.7630 C.3   302  AYM302      0.1302
     21  C21       -2.5580   22.1190  130.9420 C.ar  302  AYM302      0.0015
     22  C22       -3.2920   22.9530  130.0520 C.ar  302  AYM302      0.0001
     23  C23       -2.6110   23.9270  129.2370 C.ar  302  AYM302      0.0015
     24  C24       -1.1890   24.0810  129.3030 C.ar  302  AYM302      0.0172
@<TRIPOS>BOND
     1    23    24   ar
     2    23    22   ar
     3    24    18   ar
     4    20    19    1
     5    22    21   ar
     6    18    19   ar
     7    18    17   ar
     8    19    15   ar
     9    21    17   ar
    10    17    16   ar
    11    15    16   ar
    12    15    14    1
    13    14    12    1
    14    13    12    1
    15    12    10   am
    16    10     9    1
    17    10    11    2
    18     9     8    2
    19     6     7   ar
    20     6     5   ar
    21     7     2   ar
    22     8     5    1
    23     5     4   ar
    24     2     1    1
    25     2     3   ar
    26     4     3   ar
@<TRIPOS>MOLECULE
1p44_GEQ_A_1.pdb
 30 35 0 0 0
SMALL
GASTEIGER

@<TRIPOS>ATOM
      1  C1A       17.6540   11.9710    9.9950 C.2   350  GEQ350     -0.0114
      2  C2A       16.5270   12.5240   10.6790 C.3   350  GEQ350      0.1206
      3  C3A       16.6890   13.1250   11.9680 C.2   350  GEQ350     -0.0114
      4  C4A       17.9520   13.1930   12.5940 C.2   350  GEQ350      0.0153
      5  C5A       19.0470   12.6380   11.8970 C.2   350  GEQ350      0.0808
      6  C6A       18.9100   12.0400   10.6310 C.2   350  GEQ350      0.0157
      7  C7A       20.1770   11.6090   10.2580 C.2   350  GEQ350      0.0218
      8  C8A       21.0320   11.9630   11.3130 C.2   350  GEQ350      0.0989
      9  N9A       20.3280   12.5810   12.2870 N.2   350  GEQ350     -0.2439
     10  C1B       15.1660   12.4420    9.9910 C.2   350  GEQ350      0.2335
     11  O2B       14.7520   11.2970    9.8270 O.2   350  GEQ350     -0.2742
     12  N1C       14.4320   13.5550    9.5720 N.am  350  GEQ350     -0.2762
     13  C2C       13.0610   13.3470    9.0980 C.3   350  GEQ350      0.1108
     14  C3C       12.7130   14.4340    8.0580 C.3   350  GEQ350      0.0944
     15  N4C       12.7580   15.8270    8.6660 N.3   350  GEQ350     -0.2638
     16  C5C       13.7880   16.0020    9.7680 C.3   350  GEQ350      0.0944
     17  C6C       14.9380   14.9320    9.7390 C.3   350  GEQ350      0.1108
     18  C1D       12.8990   16.9440    7.6320 C.3   350  GEQ350      0.1031
     19  C1E       11.7250   16.9240    6.6450 C.ar  350  GEQ350     -0.0036
     20  C2E       10.3370   16.9530    6.9600 C.ar  350  GEQ350     -0.0026
     21  C3E        9.3880   16.9240    5.8930 C.ar  350  GEQ350     -0.0003
     22  C4E        9.8260   16.8670    4.5360 C.ar  350  GEQ350     -0.0000
     23  C5E       11.2140   16.8400    4.2150 C.ar  350  GEQ350     -0.0003
     24  C6E       12.1550   16.8690    5.2880 C.ar  350  GEQ350     -0.0026
     25  C1F       14.0510   16.8980    6.5810 C.ar  350  GEQ350     -0.0036
     26  C2F       15.4700   16.8990    6.8060 C.ar  350  GEQ350     -0.0026
     27  C3F       16.3540   16.8530    5.6850 C.ar  350  GEQ350     -0.0003
     28  C4F       15.8430   16.8050    4.3550 C.ar  350  GEQ350     -0.0000
     29  C5F       14.4340   16.8040    4.1240 C.ar  350  GEQ350     -0.0003
     30  C6F       13.5520   16.8530    5.2520 C.ar  350  GEQ350     -0.0026
@<TRIPOS>BOND
     1    29    28   ar
     2    29    30   ar
     3    23    22   ar
     4    23    24   ar
     5    28    27   ar
     6    22    21   ar
     7    30    24    1
     8    30    25   ar
     9    24    19   ar
    10    27    26   ar
    11    21    20   ar
    12    25    26   ar
    13    25    18    1
    14    19    20   ar
    15    19    18    1
    16    18    15    1
    17    14    15    1
    18    14    13    1
    19    15    16    1
    20    13    12    1
    21    12    17    1
    22    12    10   am
    23    17    16    1
    24    11    10    2
    25    10     2    1
    26     1     6    2
    27     1     2    1
    28     7     6    1
    29     7     8    2
    30     6     5    1
    31     2     3    1
    32     8     9    1
    33     5     9    2
    34     5     4    1
    35     3     4    2
@<TRIPOS>MOLECULE
1p45_TCL_A_1.pdb
 17 18 0 0 0
SMALL
GASTEIGER

@<TRIPOS>ATOM
      1  C1         4.9610   10.8370   35.8930 C.ar  400  TCL400      0.0566
      2  C2         4.5390   10.6950   37.2180 C.ar  400  TCL400      0.0611
      3  C6         5.5990    9.7810   35.2470 C.ar  400  TCL400      0.2307
      4  C5         5.7820    8.5610   35.9840 C.ar  400  TCL400      0.1840
      5  C4         5.3620    8.4390   37.2960 C.ar  400  TCL400      0.0417
      6  C3         4.7240    9.4920   37.9270 C.ar  400  TCL400      0.0147
      7  C11       10.5710    6.4720   35.9550 C.ar  400  TCL400      0.0587
      8  C10        9.6710    5.5820   35.3110 C.ar  400  TCL400      0.0259
      9  C9         8.3720    6.0090   35.1790 C.ar  400  TCL400      0.0929
     10  C8         7.8340    7.2620   35.6280 C.ar  400  TCL400      0.1559
     11  C12       10.0990    7.7320   36.4040 C.ar  400  TCL400      0.0146
     12  C13        8.7300    8.1280   36.2580 C.ar  400  TCL400      0.0392
     13  O7         6.4350    7.5080   35.3670 O.3   400  TCL400     -0.4494
     14 CL14        3.7840   12.0520   37.9840 Cl    400  TCL400     -0.0821
     15 CL15       12.2340    6.1020   36.2280 Cl    400  TCL400     -0.0822
     16 CL16        7.2960    4.9500   34.3990 Cl    400  TCL400     -0.0790
     17  O17        6.0140    9.9170   33.9890 O.3   400  TCL400     -0.2833
@<TRIPOS>BOND
     1    17     3    1
     2    16     9    1
     3     9     8   ar
     4     9    10   ar
     5     3     1   ar
     6     3     4   ar
     7     8     7   ar
     8    13    10    1
     9    13     4    1
    10    10    12   ar
    11     1     2   ar
    12     7    15    1
    13     7    11   ar
    14     4     5   ar
    15    12    11   ar
    16     2     6   ar
    17     2    14    1
    18     5     6   ar
@<TRIPOS>MOLECULE
1qg6_TCL_A_1.pdb
 17 18 0 0 0
SMALL
GASTEIGER

@<TRIPOS>ATOM
      1  C1         4.9540  -14.8830   11.8520 C.ar  601  TCL601      0.0566
      2  C2         5.2120  -15.4140   10.6020 C.ar  601  TCL601      0.0611
      3  C6         4.0590  -15.5170   12.6910 C.ar  601  TCL601      0.2307
      4  C5         3.4230  -16.6920   12.2820 C.ar  601  TCL601      0.1840
      5  C4         3.6850  -17.2360   11.0130 C.ar  601  TCL601      0.0417
      6  C3         4.5850  -16.5960   10.1660 C.ar  601  TCL601      0.0147
      7  C11       -1.5570  -16.5830   12.7820 C.ar  601  TCL601      0.0587
      8  C10       -1.0770  -17.5350   13.6770 C.ar  601  TCL601      0.0259
      9  C9         0.2800  -17.7470   13.7800 C.ar  601  TCL601      0.0929
     10  C8         1.1830  -17.0280   13.0030 C.ar  601  TCL601      0.1559
     11  C12       -0.6690  -15.8420   11.9940 C.ar  601  TCL601      0.0146
     12  C13        0.7080  -16.0630   12.1040 C.ar  601  TCL601      0.0392
     13  O7         2.5380  -17.2950   13.1520 O.3   601  TCL601     -0.4494
     14 CL14        6.3450  -14.5980    9.5430 Cl    601  TCL601     -0.0821
     15 CL15       -3.2940  -16.3220   12.6330 Cl    601  TCL601     -0.0822
     16 CL16        0.8800  -18.9360   14.8910 Cl    601  TCL601     -0.0790
     17  O17        3.8010  -14.9900   13.9310 O.3   601  TCL601     -0.2833
@<TRIPOS>BOND
     1    14     2    1
     2     6     2   ar
     3     6     5   ar
     4     2     1   ar
     5     5     4   ar
     6     1     3   ar
     7    11    12   ar
     8    11     7   ar
     9    12    10   ar
    10     4     3   ar
    11     4    13    1
    12    15     7    1
    13     3    17    1
    14     7     8   ar
    15    10    13    1
    16    10     9   ar
    17     8     9   ar
    18     9    16    1
@<TRIPOS>MOLECULE
1qsg_TCL_A_1.pdb
 17 18 0 0 0
SMALL
GASTEIGER

@<TRIPOS>ATOM
      1  C1         9.5330   14.4730   10.2190 C.ar  1302  TCL1302     0.0566
      2  C2         8.9140   15.6900   10.4960 C.ar  1302  TCL1302     0.0611
      3  C6        10.7180   14.1640   10.9030 C.ar  1302  TCL1302     0.2307
      4  C5        11.2180   14.9930   11.8840 C.ar  1302  TCL1302     0.1840
      5  C4        10.5420   16.1580   12.1660 C.ar  1302  TCL1302     0.0417
      6  C3         9.4120   16.5760   11.4380 C.ar  1302  TCL1302     0.0147
      7  C11       16.1130   15.4470   10.7060 C.ar  1302  TCL1302     0.0587
      8  C10       16.0760   14.7600   11.9310 C.ar  1302  TCL1302     0.0259
      9  C9        14.8280   14.4830   12.4920 C.ar  1302  TCL1302     0.0929
     10  C8        13.6610   14.8700   11.9010 C.ar  1302  TCL1302     0.1559
     11  C12       14.9760   15.8650   10.0720 C.ar  1302  TCL1302     0.0146
     12  C13       13.7490   15.5650   10.7100 C.ar  1302  TCL1302     0.0392
     13  O7        12.4010   14.6390   12.4900 O.3   1302  TCL1302    -0.4494
     14 CL14        7.4600   16.1030    9.6190 Cl    1302  TCL1302    -0.0821
     15 CL15       17.6770   15.8050   10.0020 Cl    1302  TCL1302    -0.0822
     16 CL16       14.7870   13.6890   14.0440 Cl    1302  TCL1302    -0.0790
     17  O17       11.3750   12.9590   10.6220 O.3   1302  TCL1302    -0.2833
@<TRIPOS>BOND
     1    14     2    1
     2    15     7    1
     3    11     7   ar
     4    11    12   ar
     5     1     2   ar
     6     1     3   ar
     7     2     6   ar
     8    17     3    1
     9     7     8   ar
    10    12    10   ar
    11     3     4   ar
    12     6     5   ar
    13     4     5   ar
    14     4    13    1
    15    10    13    1
    16    10     9   ar
    17     8     9   ar
    18     9    16    1
@<TRIPOS>MOLECULE
1w7j_ADP_A_1.pdb
 27 29 0 0 0
SMALL
GASTEIGER

@<TRIPOS>ATOM
      1  PB        25.2990   -5.4540   26.2460 P.3   1794  ADP1794     0.5373
      2  O1B       25.7140   -5.5150   27.6560 O.3   1794  ADP1794    -0.1143
      3  O2B       25.5800   -4.0370   25.7240 O.2   1794  ADP1794    -0.2221
      4  O3B       23.8500   -5.9030   26.1250 O.3   1794  ADP1794    -0.1143
      5  PA        27.2510   -6.3830   24.3850 P.3   1794  ADP1794     0.2231
      6  O1A       26.6160   -5.8180   23.1740 O.2   1794  ADP1794    -0.5169
      7  O2A       28.4820   -5.5990   24.8710 O.3   1794  ADP1794    -0.4370
      8  O3A       26.1750   -6.6180   25.5410 O.3   1794  ADP1794    -0.2261
      9  O5'       27.6970   -7.8960   24.0910 O.3   1794  ADP1794    -0.3111
     10  C5'       28.5810   -8.5550   24.9820 C.3   1794  ADP1794     0.1813
     11  C4'       29.4810   -9.4940   24.1820 C.3   1794  ADP1794     0.1821
     12  O4'       28.6960  -10.5430   23.6050 O.3   1794  ADP1794    -0.3135
     13  C3'       30.1980   -8.8490   23.0050 C.3   1794  ADP1794     0.2184
     14  O3'       31.3580   -8.1210   23.3450 O.3   1794  ADP1794    -0.2174
     15  C2'       30.5060  -10.0610   22.1560 C.3   1794  ADP1794     0.2570
     16  O2'       31.6310  -10.7740   22.6940 O.3   1794  ADP1794    -0.2130
     17  C1'       29.2360  -10.8910   22.3400 C.3   1794  ADP1794     0.3186
     18  N9        28.2170  -10.6510   21.3050 N.pl3 1794  ADP1794    -0.1439
     19  C8        27.0270   -9.9680   21.4190 C.3   1794  ADP1794     0.3377
     20  N7        26.3880  -10.0070   20.2360 N.2   1794  ADP1794    -0.2095
     21  C5        27.1550  -10.6960   19.3630 C.2   1794  ADP1794     0.2526
     22  C6        26.9720  -11.0310   18.0280 C.2   1794  ADP1794     0.4393
     23  N6        25.8720  -10.6650   17.3600 N.pl3 1794  ADP1794     0.2180
     24  N1        27.9570  -11.7500   17.3990 N.2   1794  ADP1794     0.0021
     25  C2        29.0930  -12.1620   18.0680 C.3   1794  ADP1794     0.5254
     26  N3        29.2740  -11.8310   19.3960 N.2   1794  ADP1794    -0.0055
     27  C4        28.3030  -11.1090   20.0220 C.2   1794  ADP1794     0.3518
@<TRIPOS>BOND
     1    23    22    1
     2    24    22    2
     3    24    25    1
     4    22    21    1
     5    25    26    1
     6    21    27    1
     7    21    20    2
     8    26    27    2
     9    27    18    1
    10    20    19    1
    11    18    19    1
    12    18    17    1
    13    15    17    1
    14    15    16    1
    15    15    13    1
    16    17    12    1
    17    13    14    1
    18    13    11    1
    19     6     5    2
    20    12    11    1
    21     9     5    1
    22     9    10    1
    23    11    10    1
    24     5     7    1
    25     5     8    1
    26     8     1    1
    27     3     1    2
    28     4     1    1
    29     1     2    1
@<TRIPOS>MOLECULE
1yxw_TRP_A_1.pdb
 15 16 0 0 0
SMALL
GASTEIGER

@<TRIPOS>ATOM
      1  N         51.9980   -7.8240   56.5630 N.3   5294  TRP5294    -0.1205
      2  CA        52.7620   -8.5400   55.5570 C.3   5294  TRP5294     0.1987
      3  C         54.1650   -7.9190   55.5290 C.2   5294  TRP5294     0.3822
      4  O         54.7480   -7.7320   54.4370 O.co2 5294  TRP5294    -0.2440
      5  CB        52.0630   -8.4070   54.1980 C.3   5294  TRP5294     0.0585
      6  CG        52.3340   -7.1160   53.5130 C.2   5294  TRP5294     0.0001
      7  CD1       52.4530   -5.8870   54.0950 C.2   5294  TRP5294     0.0946
      8  CD2       52.6100   -6.9300   52.1210 C.2   5294  TRP5294     0.0113
      9  NE1       52.8020   -4.9440   53.1550 N.2   5294  TRP5294    -0.2442
     10  CE2       52.9030   -5.5600   51.9320 C.2   5294  TRP5294     0.0804
     11  CE3       52.6410   -7.7880   51.0120 C.2   5294  TRP5294    -0.0202
     12  CZ2       53.2250   -5.0280   50.6820 C.2   5294  TRP5294     0.0148
     13  CZ3       52.9610   -7.2550   49.7640 C.3   5294  TRP5294     0.0521
     14  CH2       53.2490   -5.8850   49.6140 C.2   5294  TRP5294    -0.0199
     15  OXT       54.6790   -7.6290   56.6310 O.co2 5294  TRP5294    -0.2440
@<TRIPOS>BOND
     1    14    13    1
     2    14    12    2
     3    13    11    1
     4    12    10    1
     5    11     8    2
     6    10     8    1
     7    10     9    2
     8     8     6    1
     9     9     7    1
    10     6     7    2
    11     6     5    1
    12     5     2    1
    13     4     3   ar
    14     3     2    1
    15     3    15   ar
    16     2     1    1
@<TRIPOS>MOLECULE
2a2i_PEP_A_1.pdb
 10 9 0 0 0
SMALL
GASTEIGER

@<TRIPOS>ATOM
      1  C1        32.4440   51.5810   22.5170 C.2   1268  PEP1268     0.4216
      2  O1        33.1470   51.9960   23.4870 O.co2 1268  PEP1268    -0.2371
      3  O2'       31.1860   51.7550   22.5510 O.co2 1268  PEP1268    -0.2371
      4  C2        33.0860   50.8750   21.3490 C.2   1268  PEP1268     0.2283
      5  C3        34.3810   50.5870   21.3280 C.2   1268  PEP1268     0.0477
      6  O2        32.2030   50.5150   20.3340 O.2   1268  PEP1268    -0.3930
      7  P         32.2090   49.3620   19.1960 P.3   1268  PEP1268     0.5889
      8  O1P       32.9500   48.1040   19.6370 O.3   1268  PEP1268    -0.1039
      9  O2P       32.8360   50.0070   17.9680 O.2   1268  PEP1268    -0.2114
     10  O3P       30.7400   49.0710   18.8600 O.3   1268  PEP1268    -0.1039
@<TRIPOS>BOND
     1     9     7    2
     2    10     7    1
     3     7     8    1
     4     7     6    1
     5     6     4    1
     6     5     4    2
     7     4     1    1
     8     1     3   ar
     9     1     2   ar
@<TRIPOS>MOLECULE
2b35_TCL_A_1.pdb
 17 18 0 0 0
SMALL
GASTEIGER

@<TRIPOS>ATOM
      1  C1        13.3290   11.6280    9.2830 C.ar  300  TCL300      0.0566
      2  C2        13.2250   12.9840    9.5680 C.ar  300  TCL300      0.0611
      3  C6        14.4510   10.8960    9.6730 C.ar  300  TCL300      0.2307
      4  C5        15.5570   11.5970   10.3930 C.ar  300  TCL300      0.1840
      5  C4        15.4120   12.9690   10.6610 C.ar  300  TCL300      0.0417
      6  C3        14.2570   13.6540   10.2550 C.ar  300  TCL300      0.0147
      7  C11       20.6310   11.3070    9.3800 C.ar  300  TCL300      0.0587
      8  C10       20.4200   10.8700   10.6790 C.ar  300  TCL300      0.0259
      9  C9        19.1320   10.7230   11.1560 C.ar  300  TCL300      0.0929
     10  C8        17.9570   11.0410   10.2950 C.ar  300  TCL300      0.1559
     11  C12       19.5540   11.6070    8.5530 C.ar  300  TCL300      0.0146
     12  C13       18.2260   11.4780    8.9940 C.ar  300  TCL300      0.0392
     13  O7        16.6720   10.8840   10.7760 O.3   300  TCL300     -0.4494
     14 CL14       11.7430   13.8540    9.0380 Cl    300  TCL300     -0.0821
     15 CL15       22.3200   11.4720    8.8050 Cl    300  TCL300     -0.0822
     16 CL16       18.9880   10.1470   12.8340 Cl    300  TCL300     -0.0790
     17  O17       14.5370    9.5990    9.3950 O.3   300  TCL300     -0.2833
@<TRIPOS>BOND
     1    11    12   ar
     2    11     7   ar
     3    15     7    1
     4    12    10   ar
     5    14     2    1
     6     1     2   ar
     7     1     3   ar
     8     7     8   ar
     9    17     3    1
    10     2     6   ar
    11     3     4   ar
    12     6     5   ar
    13    10    13    1
    14    10     9   ar
    15     4     5   ar
    16     4    13    1
    17     8     9   ar
    18     9    16    1
@<TRIPOS>MOLECULE
2b36_5PP_A_1.pdb
 19 20 0 0 0
SMALL
GASTEIGER

@<TRIPOS>ATOM
      1  O17       14.1830    9.6720    9.7680 O.3   290  5PP290     -0.2833
      2  C6        14.1990   10.9750    9.6000 C.ar  290  5PP290      0.2295
      3  C5        15.2420   11.6490   10.3420 C.ar  290  5PP290      0.1839
      4  O7        16.1890   10.8180   10.8950 O.3   290  5PP290     -0.4503
      5  C8        17.5280   10.9510   10.5850 C.ar  290  5PP290      0.1454
      6  C13       17.9310   10.8460    9.2440 C.ar  290  5PP290      0.0375
      7  C12       19.2780   10.6920    8.9370 C.ar  290  5PP290      0.0031
      8  C11       20.2190   10.6000    9.9640 C.ar  290  5PP290      0.0002
      9  C10       19.8200   10.6650   11.2930 C.ar  290  5PP290      0.0031
     10  C9        18.4720   10.8040   11.6020 C.ar  290  5PP290      0.0375
     11  C4        15.0950   13.0010   10.6580 C.ar  290  5PP290      0.0405
     12  C3        14.0010   13.7190   10.1610 C.ar  290  5PP290     -0.0009
     13  C2        13.0620   13.0760    9.3530 C.ar  290  5PP290     -0.0188
     14  C1        13.0890   11.7030    9.1670 C.ar  290  5PP290      0.0410
     15  C14       11.8620   13.8730    8.8690 C.3   290  5PP290      0.0265
     16  C15       11.9990   14.1100    7.3450 C.3   290  5PP290      0.0047
     17  C16       12.2480   15.5420    6.8870 C.3   290  5PP290      0.0003
     18  C17       13.1850   15.5910    5.6600 C.3   290  5PP290      0.0000
     19  C18       14.6920   15.8900    5.8940 C.3   290  5PP290      0.0000
@<TRIPOS>BOND
     1    18    19    1
     2    18    17    1
     3    17    16    1
     4    16    15    1
     5    15    13    1
     6     7     6   ar
     7     7     8   ar
     8    14    13   ar
     9    14     2   ar
    10     6     5   ar
    11    13    12   ar
    12     2     1    1
    13     2     3   ar
    14     8     9   ar
    15    12    11   ar
    16     3    11   ar
    17     3     4    1
    18     5     4    1
    19     5    10   ar
    20     9    10   ar
@<TRIPOS>MOLECULE
2b37_8PS_C_1.pdb
 22 23 0 0 0
SMALL
GASTEIGER

@<TRIPOS>ATOM
      1  C1        28.8270   21.8850  103.8440 C.ar  300  8PS300      0.0410
      2  C2        27.4720   21.7100  104.0950 C.ar  300  8PS300     -0.0188
      3  C3        26.7060   22.6890  104.7430 C.ar  300  8PS300     -0.0009
      4  C4        27.3380   23.7400  105.3870 C.ar  300  8PS300      0.0405
      5  C5        28.6960   23.9680  105.1400 C.ar  300  8PS300      0.1839
      6  C6        29.4900   23.0070  104.3410 C.ar  300  8PS300      0.2295
      7  C8        29.5890   26.1990  105.1720 C.ar  300  8PS300      0.1454
      8  C9        30.1700   27.1480  105.9900 C.ar  300  8PS300      0.0375
      9  C10       30.4540   28.4120  105.4840 C.ar  300  8PS300      0.0031
     10  C11       30.3110   28.6620  104.1160 C.ar  300  8PS300      0.0002
     11  C12       29.8070   27.6800  103.2600 C.ar  300  8PS300      0.0031
     12  C13       29.5280   26.4140  103.7700 C.ar  300  8PS300      0.0375
     13  C14       26.7350   20.6200  103.3840 C.3   300  8PS300      0.0265
     14  C15       26.3550   21.2010  102.0160 C.3   300  8PS300      0.0047
     15  C16       25.6440   20.2320  101.1220 C.3   300  8PS300      0.0003
     16  C17       25.4550   20.8600   99.7320 C.3   300  8PS300      0.0000
     17  C18       25.0250   19.9140   98.5990 C.3   300  8PS300      0.0000
     18  C19       23.4450   19.9430   98.4470 C.3   300  8PS300      0.0000
     19  C20       22.9230   19.0430   97.2910 C.3   300  8PS300      0.0000
     20  C21       23.3190   17.5860   97.4980 C.3   300  8PS300      0.0000
     21  O17       30.8240   23.1580  104.2920 O.3   300  8PS300     -0.2833
     22  O7        29.4020   24.9700  105.7430 O.3   300  8PS300     -0.4503
@<TRIPOS>BOND
     1    19    20    1
     2    19    18    1
     3    18    17    1
     4    17    16    1
     5    16    15    1
     6    15    14    1
     7    14    13    1
     8    11    12   ar
     9    11    10   ar
    10    13     2    1
    11    12     7   ar
    12     1     2   ar
    13     1     6   ar
    14     2     3   ar
    15    10     9   ar
    16    21     6    1
    17     6     5   ar
    18     3     4   ar
    19     5     4   ar
    20     5    22    1
    21     7    22    1
    22     7     8   ar
    23     9     8   ar
@<TRIPOS>MOLECULE
2h7i_566_A_1.pdb
 21 23 0 0 0
SMALL
GASTEIGER

@<TRIPOS>ATOM
      1  C1        44.1920   53.6380  -82.0640 C.3   401  566401      0.0017
      2  C2        43.4600   52.3480  -81.6320 C.3   401  566401      0.0198
      3  C3        41.9390   52.3930  -81.9000 C.3   401  566401      0.0753
      4  C4        41.2750   53.6480  -81.2930 C.3   401  566401      0.0198
      5  C5        41.9630   54.9420  -81.7860 C.3   401  566401      0.0017
      6  C6        43.5000   54.9330  -81.5760 C.3   401  566401      0.0001
      7  C15       40.2220   50.6950  -82.0960 C.2   401  566401      0.2261
      8  C16       39.2160   50.1280  -81.1230 C.3   401  566401      0.0961
      9  C17       39.7830   50.2600  -79.7740 C.3   401  566401      0.1074
     10  C18       41.2600   50.9350  -79.8150 C.3   401  566401      0.1029
     11  N19       41.3220   51.1150  -81.4570 N.am  401  566401     -0.2806
     12  C24       36.3870   52.1870  -77.5570 C.ar  401  566401      0.0166
     13  C25       35.1840   52.6100  -76.9600 C.ar  401  566401      0.0013
     14  C26       34.0650   51.7510  -76.9400 C.ar  401  566401      0.0001
     15  C27       34.1470   50.4670  -77.5170 C.ar  401  566401      0.0013
     16  C28       35.3470   50.0380  -78.1170 C.ar  401  566401      0.0166
     17  C29       36.4750   50.8910  -78.1410 C.ar  401  566401      0.0734
     18  C33       38.7790   51.1170  -79.0110 C.2   401  566401      0.2473
     19  N35       37.6290   50.4100  -78.7680 N.am  401  566401     -0.1792
     20  O37       39.0100   52.2930  -78.7240 O.2   401  566401     -0.2729
     21  O38       40.0340   50.7380  -83.2950 O.2   401  566401     -0.2749
@<TRIPOS>BOND
     1    21     7    2
     2     7    11   am
     3     7     8    1
     4     1     2    1
     5     1     6    1
     6     3     2    1
     7     3    11    1
     8     3     4    1
     9     5     6    1
    10     5     4    1
    11    11    10    1
    12     8     9    1
    13    10     9    1
    14     9    18    1
    15    18    19   am
    16    18    20    2
    17    19    17    1
    18    17    16   ar
    19    17    12   ar
    20    16    15   ar
    21    12    13   ar
    22    15    14   ar
    23    13    14   ar
@<TRIPOS>MOLECULE
2h7l_665_A_1.pdb
 22 24 0 0 0
SMALL
GASTEIGER

@<TRIPOS>ATOM
      1  C1         4.5050   30.9890   58.3890 C.3   401  665401      0.0017
      2  C2         5.3290   32.2090   58.7070 C.3   401  665401      0.0198
      3  C3         6.9000   32.1060   58.5910 C.3   401  665401      0.0753
      4  C4         7.4920   30.8950   59.2870 C.3   401  665401      0.0198
      5  C5         6.8090   29.6420   58.6100 C.3   401  665401      0.0017
      6  C6         5.2130   29.6220   58.6460 C.3   401  665401      0.0001
      7  C7         8.5640   33.6690   58.3550 C.2   401  665401      0.2261
      8  C8         9.5830   34.1380   59.2030 C.3   401  665401      0.0961
      9  C9         9.1150   34.3540   60.5390 C.3   401  665401      0.1074
     10  C10        7.5810   33.9810   60.5610 C.3   401  665401      0.1029
     11  N11        7.3350   33.5400   58.9960 N.am  401  665401     -0.2806
     12  C12        9.7270   33.4530   61.5390 C.2   401  665401      0.2473
     13  N13       10.9850   34.0740   62.0520 N.am  401  665401     -0.1791
     14  O14        9.2590   32.3990   61.8130 O.2   401  665401     -0.2729
     15  O15        8.8200   33.4300   57.1690 O.2   401  665401     -0.2749
     16 BR1        12.7930   29.6530   64.1410 Br    401  665401     -0.0490
     17  C17       11.9490   31.8060   62.7390 C.ar  401  665401      0.0233
     18  C18       13.0250   31.3890   63.5000 C.ar  401  665401      0.0359
     19  C19       14.1640   32.2170   63.7490 C.ar  401  665401      0.0068
     20  C20       14.1870   33.5570   63.1830 C.ar  401  665401      0.0018
     21  C21       13.0550   33.9950   62.3870 C.ar  401  665401      0.0166
     22  C22       11.9060   33.0810   62.1550 C.ar  401  665401      0.0739
@<TRIPOS>BOND
     1    15     7    2
     2     7    11   am
     3     7     8    1
     4     1     6    1
     5     1     2    1
     6     3     2    1
     7     3    11    1
     8     3     4    1
     9     5     6    1
    10     5     4    1
    11    11    10    1
    12     8     9    1
    13     9    10    1
    14     9    12    1
    15    12    14    2
    16    12    13   am
    17    13    22    1
    18    22    21   ar
    19    22    17   ar
    20    21    20   ar
    21    17    18   ar
    22    20    19   ar
    23    18    19   ar
    24    18    16    1
@<TRIPOS>MOLECULE
2h7m_641_A_1.pdb
 23 25 0 0 0
SMALL
GASTEIGER

@<TRIPOS>ATOM
      1  C1         4.4120   31.1940   58.6100 C.3   501  641501      0.0017
      2  C2         5.3060   32.3810   58.9270 C.3   501  641501      0.0198
      3  C3         6.8670   32.2150   58.6840 C.3   501  641501      0.0753
      4  C4         7.4530   30.9460   59.3080 C.3   501  641501      0.0198
      5  C5         6.6790   29.7380   58.6230 C.3   501  641501      0.0017
      6  C6         5.0800   29.7800   58.7870 C.3   501  641501      0.0001
      7  C7         8.6060   33.8010   58.4930 C.2   501  641501      0.2261
      8  C8         9.6270   34.2050   59.3570 C.3   501  641501      0.0961
      9  C9         9.1800   34.3370   60.7040 C.3   501  641501      0.1074
     10  C10        7.6400   33.9780   60.7160 C.3   501  641501      0.1029
     11  N11        7.3700   33.6280   59.1310 N.am  501  641501     -0.2806
     12  C12        9.7990   33.3500   61.6090 C.2   501  641501      0.2473
     13  N13       11.0920   33.9120   62.1760 N.am  501  641501     -0.1791
     14  O14        9.3090   32.2760   61.8080 O.2   501  641501     -0.2729
     15  O15        8.8710   33.6450   57.2990 O.2   501  641501     -0.2749
     16  C15       11.8440   33.4640   62.5360 C.ar  501  641501      0.0750
     17  C20       13.0400   34.2460   62.5820 C.ar  501  641501      0.0280
     18  C19       14.2700   33.6480   63.1220 C.ar  501  641501      0.0598
     19 CL2        15.7300   34.5850   63.1860 Cl    501  641501     -0.0822
     20  C18       14.2640   32.2560   63.6080 C.ar  501  641501      0.0229
     21  C17       13.0240   31.5040   63.5390 C.ar  501  641501      0.0598
     22  C16       11.8660   32.1140   63.0160 C.ar  501  641501      0.0280
     23 CL1        12.8760   29.8620   64.0740 Cl    501  641501     -0.0822
@<TRIPOS>BOND
     1    15     7    2
     2     7    11   am
     3     7     8    1
     4     1     6    1
     5     1     2    1
     6     5     6    1
     7     5     4    1
     8     3     2    1
     9     3    11    1
    10     3     4    1
    11    11    10    1
    12     8     9    1
    13     9    10    1
    14     9    12    1
    15    12    14    2
    16    12    13   am
    17    13    16    1
    18    16    17   ar
    19    16    22   ar
    20    17    18   ar
    21    22    21   ar
    22    18    19    1
    23    18    20   ar
    24    21    20   ar
    25    21    23    1
@<TRIPOS>MOLECULE
2h7n_744_A_1.pdb
 23 25 0 0 0
SMALL
GASTEIGER

@<TRIPOS>ATOM
      1  C1        44.2660   53.3180   58.1860 C.3   501  744501      0.0017
      2  C2        43.3510   52.1530   58.5230 C.3   501  744501      0.0198
      3  C3        41.7890   52.3370   58.3140 C.3   501  744501      0.0753
      4  C4        41.2500   53.6150   58.9660 C.3   501  744501      0.0198
      5  C5        42.0100   54.8150   58.2430 C.3   501  744501      0.0017
      6  C6        43.6240   54.7530   58.3020 C.3   501  744501      0.0001
      7  C7        40.0350   50.7410   58.1780 C.2   501  744501      0.2261
      8  C8        39.0370   50.3400   59.0660 C.3   501  744501      0.0961
      9  C9        39.4890   50.2170   60.4010 C.3   501  744501      0.1074
     10  C10       41.0490   50.5720   60.3760 C.3   501  744501      0.1029
     11  N11       41.2880   50.9170   58.7820 N.am  501  744501     -0.2806
     12  C12       38.8630   51.2600   61.2420 C.2   501  744501      0.2472
     13  N13       37.6390   50.7230   61.9350 N.am  501  744501     -0.1795
     14  O14       39.2990   52.3800   61.2630 O.2   501  744501     -0.2729
     15  O15       39.7320   50.8910   56.9900 O.2   501  744501     -0.2749
     16  C15       36.7510   51.1100   62.3660 C.ar  501  744501      0.0702
     17  C20       35.4580   50.4790   62.4000 C.ar  501  744501     -0.0065
     18  C23       35.2450   49.1210   61.7880 C.3   501  744501      0.0324
     19  C19       34.3380   51.1610   63.0350 C.ar  501  744501     -0.0021
     20  C18       34.5220   52.4790   63.6340 C.ar  501  744501      0.0112
     21  C17       35.8170   53.1120   63.6060 C.ar  501  744501      0.0589
     22 CL1        36.0880   54.6980   64.3250 Cl    501  744501     -0.0822
     23  C16       36.9040   52.4370   62.9840 C.ar  501  744501      0.0277
@<TRIPOS>BOND
     1    15     7    2
     2     7    11   am
     3     7     8    1
     4     1     6    1
     5     1     2    1
     6     5     6    1
     7     5     4    1
     8     3     2    1
     9     3    11    1
    10     3     4    1
    11    11    10    1
    12     8     9    1
    13    10     9    1
    14     9    12    1
    15    12    14    2
    16    12    13   am
    17    18    17    1
    18    13    16    1
    19    16    17   ar
    20    16    23   ar
    21    17    19   ar
    22    23    21   ar
    23    19    20   ar
    24    21    20   ar
    25    21    22    1
@<TRIPOS>MOLECULE
2h7p_468_A_1.pdb
 23 25 0 0 0
SMALL
GASTEIGER

@<TRIPOS>ATOM
      1  C1        44.5680   53.5240   58.7020 C.3   501  468501      0.0017
      2  C2        43.6170   52.3640   59.0080 C.3   501  468501      0.0198
      3  C3        42.0550   52.5660   58.7520 C.3   501  468501      0.0753
      4  C4        41.5320   53.8470   59.4110 C.3   501  468501      0.0198
      5  C5        42.3210   55.0490   58.7100 C.3   501  468501      0.0017
      6  C6        43.9390   54.9730   58.7890 C.3   501  468501      0.0001
      7  C7        40.2950   50.9190   58.5750 C.2   501  468501      0.2261
      8  C8        39.2980   50.4780   59.4560 C.3   501  468501      0.0961
      9  C9        39.7380   50.3890   60.8070 C.3   501  468501      0.1074
     10  C10       41.2780   50.8040   60.8030 C.3   501  468501      0.1029
     11  N11       41.5350   51.1480   59.2060 N.am  501  468501     -0.2806
     12  C12       39.0400   51.4430   61.5890 C.2   501  468501      0.2472
     13  N13       38.0180   50.8250   62.4830 N.am  501  468501     -0.1795
     14  O14       39.2690   52.5920   61.3930 O.2   501  468501     -0.2729
     15  O15       40.0080   51.0560   57.3830 O.2   501  468501     -0.2749
     16  C15       37.2360   51.4270   62.9640 C.ar  501  468501      0.0702
     17  C20       37.2890   52.7310   63.5630 C.ar  501  468501      0.0163
     18  C19       36.0570   53.3800   64.1820 C.ar  501  468501      0.0022
     19  C18       34.7730   52.6950   64.1920 C.ar  501  468501      0.0112
     20  C17       34.6390   51.3920   63.6210 C.ar  501  468501      0.0549
     21  C16       35.9270   50.6900   62.9570 C.ar  501  468501      0.0041
     22  C23       35.7830   49.3140   62.3470 C.3   501  468501      0.0333
     23 CL1        33.0360   50.6430   63.6860 Cl    501  468501     -0.0825
@<TRIPOS>BOND
     1    15     7    2
     2     7    11   am
     3     7     8    1
     4     1     6    1
     5     1     2    1
     6     5     6    1
     7     5     4    1
     8     3     2    1
     9     3    11    1
    10     3     4    1
    11    11    10    1
    12     8     9    1
    13    10     9    1
    14     9    12    1
    15    14    12    2
    16    12    13   am
    17    22    21    1
    18    13    16    1
    19    21    16   ar
    20    21    20   ar
    21    16    17   ar
    22    17    18   ar
    23    20    23    1
    24    20    19   ar
    25    18    19   ar
@<TRIPOS>MOLECULE
2ol4_JPN_A_1.pdb
 25 27 0 0 0
SMALL
GASTEIGER

@<TRIPOS>ATOM
      1 CL24       51.0380   89.0820   36.0230 Cl    700  JPN700     -0.0790
      2  C18       51.8430   89.8740   34.6280 C.ar  700  JPN700      0.0929
      3  C19       52.9070   89.2620   33.9820 C.ar  700  JPN700      0.0259
      4  C17       51.3850   91.2030   34.1580 C.ar  700  JPN700      0.1559
      5  C22       52.0120   91.7860   33.0630 C.ar  700  JPN700      0.0392
      6  C21       53.0810   91.1340   32.4540 C.ar  700  JPN700      0.0146
      7  C20       53.5190   89.8910   32.9020 C.ar  700  JPN700      0.0587
      8 CL25       54.8950   89.0770   32.0860 Cl    700  JPN700     -0.0822
      9  O16       50.3260   91.8030   34.7890 O.3   700  JPN700     -0.4494
     10  C13       50.0120   93.1280   34.6100 C.ar  700  JPN700      0.1839
     11  C14       50.6380   94.1550   35.3060 C.ar  700  JPN700      0.0405
     12  C15       50.2510   95.4750   35.0750 C.ar  700  JPN700     -0.0009
     13  C10       49.2260   95.7970   34.1860 C.ar  700  JPN700     -0.0188
     14  C11       48.5680   94.7990   33.4800 C.ar  700  JPN700      0.0410
     15  C12       48.9210   93.4720   33.6720 C.ar  700  JPN700      0.2295
     16  O23       48.2880   92.4810   32.9970 O.3   700  JPN700     -0.2833
     17  C9        48.8080   97.2330   33.9490 C.3   700  JPN700      0.0268
     18  C8        50.0130   98.1580   33.8330 C.3   700  JPN700      0.0094
     19  C7        51.0570   97.5700   32.8920 C.3   700  JPN700      0.0267
     20  C3        51.7130   98.6510   32.0700 C.ar  700  JPN700     -0.0222
     21  C4        52.9040   98.3740   31.4120 C.ar  700  JPN700     -0.0043
     22  C5        53.5150   99.3550   30.6420 C.ar  700  JPN700     -0.0003
     23  C6        52.9440  100.6180   30.5380 C.ar  700  JPN700     -0.0000
     24  C1        51.7510  100.8920   31.1990 C.ar  700  JPN700     -0.0003
     25  C2        51.1330   99.9080   31.9630 C.ar  700  JPN700     -0.0043
@<TRIPOS>BOND
     1    23    22   ar
     2    23    24   ar
     3    22    21   ar
     4    24    25   ar
     5    21    20   ar
     6    25    20   ar
     7    20    19    1
     8     8     7    1
     9     6     7   ar
    10     6     5   ar
    11    19    18    1
    12     7     3   ar
    13    16    15    1
    14     5     4   ar
    15    14    15   ar
    16    14    13   ar
    17    15    10   ar
    18    18    17    1
    19    17    13    1
    20     3     2   ar
    21     4     2   ar
    22     4     9    1
    23    13    12   ar
    24    10     9    1
    25    10    11   ar
    26     2     1    1
    27    12    11   ar
@<TRIPOS>MOLECULE
2oos_JPJ_A_1.pdb
 24 26 0 0 0
SMALL
GASTEIGER

@<TRIPOS>ATOM
      1 CL20       50.8420   88.7930   36.0010 Cl    500  JPJ500     -0.0790
      2  C15       51.6280   89.6710   34.6570 C.ar  500  JPJ500      0.0929
      3  C16       52.6550   89.0490   33.9550 C.ar  500  JPJ500      0.0259
      4  C17       53.2910   89.7260   32.9140 C.ar  500  JPJ500      0.0587
      5 CL21       54.6010   88.8660   32.0760 Cl    500  JPJ500     -0.0822
      6  C22       52.9270   91.0290   32.5720 C.ar  500  JPJ500      0.0146
      7  C19       51.9020   91.6480   33.2750 C.ar  500  JPJ500      0.0392
      8  C14       51.2540   90.9580   34.3240 C.ar  500  JPJ500      0.1559
      9  O13       50.2520   91.5370   35.0490 O.3   500  JPJ500     -0.4494
     10  C2        49.9070   92.8510   34.7970 C.ar  500  JPJ500      0.1839
     11  C1        49.0340   93.1700   33.7470 C.ar  500  JPJ500      0.2295
     12  O22       48.5540   92.1590   32.9530 O.3   500  JPJ500     -0.2833
     13  C3        50.4420   93.8770   35.5960 C.ar  500  JPJ500      0.0405
     14  C4        50.0940   95.2060   35.3530 C.ar  500  JPJ500     -0.0009
     15  C5        49.2280   95.5510   34.3020 C.ar  500  JPJ500     -0.0185
     16  C6        48.6770   94.5200   33.5240 C.ar  500  JPJ500      0.0410
     17  C7        48.8070   96.9960   34.0410 C.3   500  JPJ500      0.0311
     18  C18       49.8210   98.0990   34.3190 C.3   500  JPJ500      0.0310
     19  C28       51.0020   98.0410   33.3730 C.ar  500  JPJ500     -0.0218
     20  C27       50.8970   98.5430   32.0780 C.ar  500  JPJ500     -0.0043
     21  C26       51.9710   98.4910   31.1800 C.ar  500  JPJ500     -0.0003
     22  C25       53.1720   97.9300   31.6050 C.ar  500  JPJ500     -0.0000
     23  C24       53.2820   97.4340   32.9160 C.ar  500  JPJ500     -0.0003
     24  C23       52.1970   97.4800   33.7990 C.ar  500  JPJ500     -0.0043
@<TRIPOS>BOND
     1    21    22   ar
     2    21    20   ar
     3    22    23   ar
     4     5     4    1
     5    20    19   ar
     6     6     4   ar
     7     6     7   ar
     8     4     3   ar
     9    23    24   ar
    10    12    11    1
    11     7     8   ar
    12    19    24   ar
    13    19    18    1
    14    16    11   ar
    15    16    15   ar
    16    11    10   ar
    17     3     2   ar
    18    17    15    1
    19    17    18    1
    20    15    14   ar
    21     8     2   ar
    22     8     9    1
    23     2     1    1
    24    10     9    1
    25    10    13   ar
    26    14    13   ar
@<TRIPOS>MOLECULE
2q7g_CCL_A_1.pdb
 18 18 0 0 0
SMALL
GASTEIGER

@<TRIPOS>ATOM
      1  CAK        8.6020   50.5340   31.3540 C.3   901  CCL901      0.0437
      2  CAG        8.6970   51.8580   32.1270 C.3   901  CCL901      0.0038
      3  CAH        7.2870   52.1750   32.6150 C.3   901  CCL901      0.0038
      4  CAL        6.3680   51.5390   31.5810 C.3   901  CCL901      0.0437
      5  CAR        7.1120   50.2690   31.1180 C.3   901  CCL901      0.1705
      6  OAN        6.7690   49.1150   31.9240 O.3   901  CCL901     -0.4373
      7  CAP        6.7760   47.9570   31.1740 C.2   901  CCL901      0.4210
      8  OAC        7.2400   47.9620   30.0270 O.2   901  CCL901     -0.2246
      9  NAM        6.2630   46.8760   31.7440 N.am  901  CCL901     -0.1687
     10  CAI        6.2000   45.5610   31.0960 C.3   901  CCL901      0.1187
     11  CAE        7.5090   44.8360   31.4180 C.3   901  CCL901      0.0236
     12  CAF        7.4800   44.2130   32.8120 C.3   901  CCL901      0.0039
     13  CB         8.8770   43.7280   33.2550 C.3   901  CCL901      0.0307
     14  CA         9.1070   43.8840   34.7810 C.3   901  CCL901      0.1943
     15  C          7.9850   43.2390   35.6260 C.2   901  CCL901      0.3819
     16  OXT        7.2990   42.3240   35.1090 O.co2 901  CCL901     -0.2441
     17  O          7.8420   43.6810   36.7900 O.co2 901  CCL901     -0.2441
     18  N          9.2140   45.3110   35.1420 N.3   901  CCL901     -0.1208
@<TRIPOS>BOND
     1     8     7    2
     2    10    11    1
     3    10     9    1
     4     5     1    1
     5     5     4    1
     6     5     6    1
     7     7     9   am
     8     7     6    1
     9     1     2    1
    10    11    12    1
    11     4     3    1
    12     2     3    1
    13    12    13    1
    14    13    14    1
    15    14    18    1
    16    14    15    1
    17    16    15   ar
    18    15    17   ar
@<TRIPOS>MOLECULE
2wyw_TCL_A_1.pdb
 17 18 0 0 0
SMALL
GASTEIGER

@<TRIPOS>ATOM
      1  C1        22.3470   10.6330   23.3420 C.ar  1261  TCL1261     0.0566
      2  C2        23.7030   10.8880   23.1830 C.ar  1261  TCL1261     0.0611
      3  C6        21.6770    9.9260   22.3670 C.ar  1261  TCL1261     0.2307
      4  C5        22.4370    9.4470   21.1980 C.ar  1261  TCL1261     0.1840
      5  C4        23.7860    9.7150   21.0580 C.ar  1261  TCL1261     0.0417
      6  C3        24.4230   10.4520   22.0630 C.ar  1261  TCL1261     0.0147
      7  C11       20.0910   10.6690   17.0770 C.ar  1261  TCL1261     0.0587
      8  C10       20.0610    9.2970   17.1030 C.ar  1261  TCL1261     0.0259
      9  C9        20.6040    8.6670   18.1950 C.ar  1261  TCL1261     0.0929
     10  C8        21.1990    9.4580   19.2680 C.ar  1261  TCL1261     0.1559
     11  C12       20.6430   11.4500   18.0950 C.ar  1261  TCL1261     0.0146
     12  C13       21.2120   10.8560   19.1980 C.ar  1261  TCL1261     0.0392
     13  O7        21.7390    8.7610   20.2730 O.3   1261  TCL1261    -0.4494
     14 CL14       24.5460   11.8260   24.4410 Cl    1261  TCL1261    -0.0821
     15 CL15       19.3650   11.4260   15.6510 Cl    1261  TCL1261    -0.0822
     16 CL16       20.6400    6.8960   18.3080 Cl    1261  TCL1261    -0.0790
     17  O17       20.3480    9.6250   22.4490 O.3   1261  TCL1261    -0.2833
@<TRIPOS>BOND
     1    15     7    1
     2     7     8   ar
     3     7    11   ar
     4     8     9   ar
     5    11    12   ar
     6     9    16    1
     7     9    10   ar
     8    12    10   ar
     9    10    13    1
    10    13     4    1
    11     5     4   ar
    12     5     6   ar
    13     4     3   ar
    14     6     2   ar
    15     3    17    1
    16     3     1   ar
    17     2     1   ar
    18     2    14    1
@<TRIPOS>MOLECULE
2x22_TCU_A_1.pdb
 21 22 0 0 0
SMALL
GASTEIGER

@<TRIPOS>ATOM
      1  O17      -16.3640  -33.1310   16.5740 O.3   1271  TCU1271    -0.2833
      2  C6       -16.4270  -34.4610   16.8810 C.ar  1271  TCU1271     0.2295
      3  C1       -15.3910  -35.1190   17.5510 C.ar  1271  TCU1271     0.0410
      4  C2       -15.5180  -36.4760   17.8320 C.ar  1271  TCU1271    -0.0188
      5  C16      -14.3680  -37.1940   18.5250 C.3   1271  TCU1271     0.0265
      6  C17      -13.5770  -37.7830   17.3480 C.3   1271  TCU1271     0.0047
      7  C18      -12.2750  -38.4580   17.7440 C.3   1271  TCU1271     0.0003
      8  C19      -11.2390  -38.4450   16.6190 C.3   1271  TCU1271     0.0000
      9  C20      -11.6780  -39.2280   15.3910 C.3   1271  TCU1271     0.0000
     10  C21      -11.4570  -40.7170   15.5650 C.3   1271  TCU1271     0.0000
     11  C3       -16.6730  -37.2000   17.4710 C.ar  1271  TCU1271    -0.0009
     12  C4       -17.7590  -36.5890   16.8150 C.ar  1271  TCU1271     0.0405
     13  C5       -17.6460  -35.2260   16.5070 C.ar  1271  TCU1271     0.1839
     14  O7       -18.6350  -34.5590   15.8570 O.3   1271  TCU1271    -0.4506
     15  C8       -18.4750  -34.4700   14.4920 C.ar  1271  TCU1271     0.1414
     16  C9       -17.3620  -34.9760   13.8270 C.ar  1271  TCU1271     0.0372
     17  C10      -17.2510  -34.8340   12.4420 C.ar  1271  TCU1271     0.0031
     18  C11      -18.2520  -34.2060   11.6980 C.ar  1271  TCU1271    -0.0001
     19  C12      -19.3930  -33.7060   12.3230 C.ar  1271  TCU1271    -0.0012
     20  C13      -19.5230  -33.8060   13.7040 C.ar  1271  TCU1271     0.0127
     21  C14      -20.7230  -33.2820   14.4340 C.3   1271  TCU1271     0.0342
@<TRIPOS>BOND
     1    18    19   ar
     2    18    17   ar
     3    19    20   ar
     4    17    16   ar
     5    20    21    1
     6    20    15   ar
     7    16    15   ar
     8    15    14    1
     9     9    10    1
    10     9     8    1
    11    14    13    1
    12    13    12   ar
    13    13     2   ar
    14     1     2    1
    15     8     7    1
    16    12    11   ar
    17     2     3   ar
    18     6     7    1
    19     6     5    1
    20    11     4   ar
    21     3     4   ar
    22     4     5    1
@<TRIPOS>MOLECULE
2x23_TCU_A_1.pdb
 21 22 0 0 0
SMALL
GASTEIGER

@<TRIPOS>ATOM
      1  O17      -21.4550   -4.3220  -27.6240 O.3   1271  TCU1271    -0.2833
      2  C6       -21.7880   -4.4230  -28.9580 C.ar  1271  TCU1271     0.2295
      3  C1       -22.1920   -5.6140  -29.5620 C.ar  1271  TCU1271     0.0410
      4  C2       -22.4900   -5.6080  -30.9300 C.ar  1271  TCU1271    -0.0188
      5  C16      -22.8800   -6.9150  -31.6040 C.3   1271  TCU1271     0.0265
      6  C17      -21.5180   -7.4190  -32.1030 C.3   1271  TCU1271     0.0047
      7  C18      -21.5650   -8.7800  -32.7550 C.3   1271  TCU1271     0.0003
      8  C19      -20.1740   -9.3970  -32.7980 C.3   1271  TCU1271     0.0000
      9  C20      -19.2280   -8.6920  -33.7430 C.3   1271  TCU1271     0.0000
     10  C21      -19.3740   -9.1730  -35.1900 C.3   1271  TCU1271     0.0000
     11  C3       -22.4300   -4.4320  -31.6820 C.ar  1271  TCU1271    -0.0009
     12  C4       -22.0340   -3.2130  -31.1410 C.ar  1271  TCU1271     0.0405
     13  C5       -21.7490   -3.1870  -29.7760 C.ar  1271  TCU1271     0.1839
     14  O7       -21.3580   -2.0560  -29.1740 O.3   1271  TCU1271    -0.4506
     15  C8       -19.9990   -1.7270  -29.1250 C.ar  1271  TCU1271     0.1414
     16  C9       -18.9980   -2.5670  -29.6430 C.ar  1271  TCU1271     0.0372
     17  C10      -17.6650   -2.1660  -29.5780 C.ar  1271  TCU1271     0.0031
     18  C11      -17.2950   -0.9540  -28.9790 C.ar  1271  TCU1271    -0.0001
     19  C12      -18.2540   -0.0800  -28.4520 C.ar  1271  TCU1271    -0.0012
     20  C13      -19.6100   -0.4290  -28.5000 C.ar  1271  TCU1271     0.0127
     21  C14      -20.6730    0.4860  -27.9510 C.3   1271  TCU1271     0.0342
@<TRIPOS>BOND
     1    10     9    1
     2     9     8    1
     3     8     7    1
     4     7     6    1
     5     6     5    1
     6    11    12   ar
     7    11     4   ar
     8     5     4    1
     9    12    13   ar
    10     4     3   ar
    11    13    14    1
    12    13     2   ar
    13    16    17   ar
    14    16    15   ar
    15    17    18   ar
    16     3     2   ar
    17    14    15    1
    18    15    20   ar
    19    18    19   ar
    20     2     1    1
    21    20    19   ar
    22    20    21    1
@<TRIPOS>MOLECULE
2zin_LBY_A_1.pdb
 17 16 0 0 0
SMALL
GASTEIGER

@<TRIPOS>ATOM
      1  C1        -8.9360   50.1350   -2.3600 C.3   601  LBY601      0.0437
      2  CT        -7.4690   50.1900   -2.7950 C.3   601  LBY601      0.1379
      3  C2        -6.6550   51.0230   -1.8000 C.3   601  LBY601      0.0437
      4  C3        -7.3640   50.8200   -4.1840 C.3   601  LBY601      0.0437
      5  O2        -6.9580   48.8520   -2.8660 O.3   601  LBY601     -0.4408
      6  CZ        -6.9050   48.2690   -1.6350 C.2   601  LBY601      0.4209
      7  O1        -7.3190   48.8860   -0.6560 O.2   601  LBY601     -0.2246
      8  NZ        -6.4740   47.0160   -1.5330 N.am  601  LBY601     -0.1687
      9  CE        -6.0820   46.2240   -2.7040 C.3   601  LBY601      0.1187
     10  CD        -7.0780   45.0650   -2.7920 C.3   601  LBY601      0.0236
     11  CG        -7.0750   44.4440   -4.1880 C.3   601  LBY601      0.0039
     12  CB        -8.2570   43.4890   -4.3660 C.3   601  LBY601      0.0307
     13  CA        -8.3790   43.0870   -5.8370 C.3   601  LBY601      0.1943
     14  C         -8.4920   44.3600   -6.6800 C.2   601  LBY601      0.3819
     15  OXT       -9.3850   45.1740   -6.3590 O.co2 601  LBY601     -0.2441
     16  O         -7.6740   44.5000   -7.6140 O.co2 601  LBY601     -0.2441
     17  N         -7.1790   42.3380   -6.2390 N.3   601  LBY601     -0.1208
@<TRIPOS>BOND
     1    16    14   ar
     2    14    15   ar
     3    14    13    1
     4    17    13    1
     5    13    12    1
     6    12    11    1
     7    11    10    1
     8     4     2    1
     9     5     2    1
    10     5     6    1
    11     2     1    1
    12     2     3    1
    13    10     9    1
    14     9     8    1
    15     6     8   am
    16     6     7    2
@<TRIPOS>MOLECULE
3fne_8PC_A_1.pdb
 23 25 0 0 0
SMALL
GASTEIGER

@<TRIPOS>ATOM
      1 CL1        22.8550   -0.7190   10.0960 Cl    400  8PC400     -0.0822
      2  C17       24.3510    0.0390   10.6510 C.ar  400  8PC400      0.0587
      3  C16       25.0930   -0.5770   11.6330 C.ar  400  8PC400      0.0259
      4  C15       26.2590    0.0300   12.0410 C.ar  400  8PC400      0.0929
      5 CL2        27.1850   -0.7920   13.3150 Cl    400  8PC400     -0.0790
      6  C14       26.6620    1.2370   11.4880 C.ar  400  8PC400      0.1559
      7  C19       25.9040    1.8480   10.5040 C.ar  400  8PC400      0.0392
      8  C22       24.7430    1.2330   10.0860 C.ar  400  8PC400      0.0146
      9  O13       27.8180    1.8250   11.9000 O.3   400  8PC400     -0.4494
     10  C2        28.3540    2.9490   11.3430 C.ar  400  8PC400      0.1839
     11  C3        29.1020    2.8740   10.1820 C.ar  400  8PC400      0.0405
     12  C4        29.6330    4.0460    9.6430 C.ar  400  8PC400     -0.0005
     13  C5        29.4360    5.2760   10.2560 C.ar  400  8PC400     -0.0128
     14  C6        28.6830    5.3480   11.4210 C.ar  400  8PC400      0.0414
     15  C1        28.1470    4.1800   11.9620 C.ar  400  8PC400      0.2296
     16  O22       27.3940    4.2320   13.0840 O.3   400  8PC400     -0.2833
     17  C7        30.0530    6.5310    9.6780 C.3   400  8PC400      0.0721
     18  C23       29.2070    7.1020    8.5660 C.ar  400  8PC400      0.0634
     19  N24       29.6220    6.9890    7.2870 N.ar  400  8PC400     -0.2478
     20  C25       28.8800    7.4850    6.2740 C.ar  400  8PC400      0.0985
     21  C26       27.6670    8.1480    6.5140 C.ar  400  8PC400      0.0207
     22  C27       27.2260    8.2860    7.8260 C.ar  400  8PC400      0.0028
     23  C28       28.0040    7.7520    8.8570 C.ar  400  8PC400      0.0151
@<TRIPOS>BOND
     1    20    21   ar
     2    20    19   ar
     3    21    22   ar
     4    19    18   ar
     5    22    23   ar
     6    18    23   ar
     7    18    17    1
     8    12    11   ar
     9    12    13   ar
    10    17    13    1
    11     8     7   ar
    12     8     2   ar
    13     1     2    1
    14    11    10   ar
    15    13    14   ar
    16     7     6   ar
    17     2     3   ar
    18    10     9    1
    19    10    15   ar
    20    14    15   ar
    21     6     9    1
    22     6     4   ar
    23     3     4   ar
    24    15    16    1
    25     4     5    1
@<TRIPOS>MOLECULE
3fnf_JPM_A_1.pdb
 23 25 0 0 0
SMALL
GASTEIGER

@<TRIPOS>ATOM
      1  C2        28.0880    3.9000   12.1270 C.ar  400  JPM400      0.2295
      2  C3        28.1620    2.6800   11.4630 C.ar  400  JPM400      0.1839
      3  C4        28.8110    2.5930   10.2290 C.ar  400  JPM400      0.0405
      4  C5        29.3730    3.7510    9.6810 C.ar  400  JPM400     -0.0006
      5  C7        26.0740   -0.2270   12.3290 C.ar  400  JPM400      0.0929
      6  C8        26.4040    0.9770   11.6880 C.ar  400  JPM400      0.1559
      7  C9        25.5760    1.4810   10.6970 C.ar  400  JPM400      0.0392
      8  C10       24.3970    0.7840   10.3580 C.ar  400  JPM400      0.0146
      9  C11       24.0320   -0.4140   10.9810 C.ar  400  JPM400      0.0587
     10  C12       24.8860   -0.9170   11.9880 C.ar  400  JPM400      0.0259
     11  C15       27.6610    7.4270    6.3210 C.ar  400  JPM400     -0.0000
     12  C16       27.1030    7.5400    7.5820 C.ar  400  JPM400     -0.0003
     13  C18       29.9360    6.2360    9.7590 C.3   400  JPM400      0.0527
     14  C19       29.7040    6.5460    7.2790 C.ar  400  JPM400     -0.0039
     15  O2        27.4480    3.9580   13.3250 O.3   400  JPM400     -0.2833
     16  O1        27.5740    1.5960   12.0620 O.3   400  JPM400     -0.4494
     17 CL1        27.0270   -0.7400   13.3880 Cl    400  JPM400     -0.0790
     18 CL5        22.7710   -1.1240   10.5360 Cl    400  JPM400     -0.0822
     19  C1        28.6580    5.0460   11.5770 C.ar  400  JPM400      0.0413
     20  C6        29.2990    4.9810   10.3430 C.ar  400  JPM400     -0.0144
     21  C13       29.1480    6.6520    8.5450 C.ar  400  JPM400     -0.0178
     22  C17       27.8540    7.1460    8.6860 C.ar  400  JPM400     -0.0039
     23  C14       28.9600    6.9280    6.1590 C.ar  400  JPM400     -0.0003
@<TRIPOS>BOND
     1    23    11   ar
     2    23    14   ar
     3    11    12   ar
     4    14    21   ar
     5    12    22   ar
     6    21    22   ar
     7    21    13    1
     8     4     3   ar
     9     4    20   ar
    10    13    20    1
    11     3     2   ar
    12    20    19   ar
    13     8     7   ar
    14     8     9   ar
    15    18     9    1
    16     7     6   ar
    17     9    10   ar
    18     2    16    1
    19     2     1   ar
    20    19     1   ar
    21     6    16    1
    22     6     5   ar
    23    10     5   ar
    24     1    15    1
    25     5    17    1
@<TRIPOS>MOLECULE
3fng_JPL_A_1.pdb
 23 25 0 0 0
SMALL
GASTEIGER

@<TRIPOS>ATOM
      1  C2        27.8470   48.7830  -11.5490 C.ar  400  JPL400      0.2295
      2  C3        26.6370   48.8320  -12.2280 C.ar  400  JPL400      0.1839
      3  C4        26.5850   48.3580  -13.5290 C.ar  400  JPL400      0.0405
      4  C5        27.7270   47.8570  -14.1500 C.ar  400  JPL400     -0.0006
      5  C7        23.7950   50.9610  -11.2330 C.ar  400  JPL400      0.0929
      6  C8        25.0130   50.5910  -11.8080 C.ar  400  JPL400      0.1559
      7  C9        25.7150   51.5050  -12.6100 C.ar  400  JPL400      0.0392
      8  C10       25.1990   52.7860  -12.8410 C.ar  400  JPL400      0.0146
      9  C11       23.9790   53.1890  -12.2810 C.ar  400  JPL400      0.0587
     10  C12       23.2890   52.2650  -11.4740 C.ar  400  JPL400      0.0259
     11  C15       32.8660   50.0220  -16.4710 C.3   400  JPL400      0.0050
     12  C16       31.6220   50.3940  -15.7980 C.3   400  JPL400      0.0254
     13  C18       30.1520   47.2550  -14.1580 C.3   400  JPL400      0.0481
     14  C19       32.0240   47.6980  -15.7020 C.3   400  JPL400      0.0220
     15  O2        27.8970   49.2440  -10.2820 O.3   400  JPL400     -0.2833
     16  C1        29.0050   48.2840  -12.1560 C.ar  400  JPL400      0.0413
     17  C6        28.9420   47.8310  -13.4720 C.ar  400  JPL400     -0.0147
     18  C13       30.9910   48.2020  -14.9860 C.2   400  JPL400     -0.0441
     19  C14       32.1370   48.6500  -17.1730 C.3   400  JPL400      0.0047
     20  C17       30.9170   49.5800  -14.9480 C.2   400  JPL400     -0.0343
     21  O1        25.5000   49.3230  -11.6020 O.3   400  JPL400     -0.4494
     22 CL1        23.0420   49.9520  -10.3740 Cl    400  JPL400     -0.0790
     23 CL5        23.4430   54.5980  -12.5900 Cl    400  JPL400     -0.0822
@<TRIPOS>BOND
     1    19    11    1
     2    19    14    1
     3    11    12    1
     4    12    20    1
     5    14    18    1
     6    18    20    2
     7    18    13    1
     8    13    17    1
     9     4     3   ar
    10     4    17   ar
    11     3     2   ar
    12    17    16   ar
    13     8     7   ar
    14     8     9   ar
    15     7     6   ar
    16    23     9    1
    17     9    10   ar
    18     2    21    1
    19     2     1   ar
    20    16     1   ar
    21     6    21    1
    22     6     5   ar
    23     1    15    1
    24    10     5   ar
    25     5    22    1
@<TRIPOS>MOLECULE
3fnh_JPJ_A_1.pdb
 24 26 0 0 0
SMALL
GASTEIGER

@<TRIPOS>ATOM
      1 CL20      -23.1450  -50.1690  -10.1830 Cl    400  JPJ400     -0.0790
      2  C15      -23.7610  -51.2400  -11.0530 C.ar  400  JPJ400      0.0929
      3  C16      -23.1730  -52.5050  -11.3200 C.ar  400  JPJ400      0.0259
      4  C17      -23.8350  -53.4450  -12.1940 C.ar  400  JPJ400      0.0587
      5 CL21      -23.2680  -54.7950  -12.5390 Cl    400  JPJ400     -0.0822
      6  C22      -25.0960  -53.0900  -12.7650 C.ar  400  JPJ400      0.0146
      7  C19      -25.6850  -51.8230  -12.5060 C.ar  400  JPJ400      0.0392
      8  C14      -24.9990  -50.9150  -11.6500 C.ar  400  JPJ400      0.1559
      9  O13      -25.4920  -49.6700  -11.3430 O.3   400  JPJ400     -0.4494
     10  C2       -26.5020  -49.0370  -12.0130 C.ar  400  JPJ400      0.1839
     11  C1       -27.7350  -48.7860  -11.4060 C.ar  400  JPJ400      0.2295
     12  O22      -28.0090  -49.1750  -10.1340 O.3   400  JPJ400     -0.2833
     13  C3       -26.2510  -48.6340  -13.3060 C.ar  400  JPJ400      0.0405
     14  C4       -27.2290  -47.9780  -14.0180 C.ar  400  JPJ400     -0.0009
     15  C5       -28.4560  -47.7170  -13.4180 C.ar  400  JPJ400     -0.0185
     16  C6       -28.7250  -48.1240  -12.1130 C.ar  400  JPJ400      0.0410
     17  C7       -29.5070  -47.0040  -14.2170 C.3   400  JPJ400      0.0311
     18  C18      -30.7510  -47.8440  -14.0090 C.3   400  JPJ400      0.0310
     19  C28      -31.4470  -48.0980  -15.3080 C.ar  400  JPJ400     -0.0218
     20  C27      -31.2750  -49.3460  -15.9200 C.ar  400  JPJ400     -0.0043
     21  C26      -31.9700  -49.5420  -17.1230 C.ar  400  JPJ400     -0.0003
     22  C25      -32.8080  -48.5230  -17.6830 C.ar  400  JPJ400     -0.0000
     23  C24      -32.9860  -47.2860  -17.0530 C.ar  400  JPJ400     -0.0003
     24  C23      -32.2830  -47.0970  -15.8470 C.ar  400  JPJ400     -0.0043
@<TRIPOS>BOND
     1    22    21   ar
     2    22    23   ar
     3    21    20   ar
     4    23    24   ar
     5    20    19   ar
     6    24    19   ar
     7    19    18    1
     8    17    18    1
     9    17    15    1
    10    14    15   ar
    11    14    13   ar
    12    15    16   ar
    13    13    10   ar
    14     6     7   ar
    15     6     4   ar
    16     5     4    1
    17     7     8   ar
    18     4     3   ar
    19    16    11   ar
    20    10    11   ar
    21    10     9    1
    22     8     9    1
    23     8     2   ar
    24    11    12    1
    25     3     2   ar
    26     2     1    1
@<TRIPOS>MOLECULE
3gr6_TCL_A_1.pdb
 17 18 0 0 0
SMALL
GASTEIGER

@<TRIPOS>ATOM
      1  C1         6.0830   20.4870  -18.6910 C.ar  371  TCL371      0.0566
      2  C2         6.1730   21.4340  -17.6760 C.ar  371  TCL371      0.0611
      3  C6         5.7160   20.8750  -19.9720 C.ar  371  TCL371      0.2307
      4  C5         5.4260   22.3060  -20.2350 C.ar  371  TCL371      0.1840
      5  C4         5.5290   23.2160  -19.1920 C.ar  371  TCL371      0.0417
      6  C3         5.9000   22.7770  -17.9240 C.ar  371  TCL371      0.0147
      7  C11        4.1400   19.9130  -24.4360 C.ar  371  TCL371      0.0587
      8  C10        3.1640   20.2230  -23.4930 C.ar  371  TCL371      0.0259
      9  C9         3.4310   21.1520  -22.4970 C.ar  371  TCL371      0.0929
     10  C8         4.7650   21.8020  -22.4580 C.ar  371  TCL371      0.1559
     11  C12        5.3910   20.5240  -24.3970 C.ar  371  TCL371      0.0146
     12  C13        5.7070   21.4620  -23.4190 C.ar  371  TCL371      0.0392
     13  O7         5.0610   22.7240  -21.4880 O.3   371  TCL371     -0.4494
     14 CL14        6.6490   20.9190  -16.0230 Cl    371  TCL371     -0.0821
     15 CL15        3.7820   18.7100  -25.7190 Cl    371  TCL371     -0.0822
     16 CL16        2.1820   21.5620  -21.2740 Cl    371  TCL371     -0.0790
     17  O17        5.6250   19.9560  -20.9730 O.3   371  TCL371     -0.2833
@<TRIPOS>BOND
     1    15     7    1
     2     7    11   ar
     3     7     8   ar
     4    11    12   ar
     5     8     9   ar
     6    12    10   ar
     7     9    10   ar
     8     9    16    1
     9    10    13    1
    10    13     4    1
    11    17     3    1
    12     4     3   ar
    13     4     5   ar
    14     3     1   ar
    15     5     6   ar
    16     1     2   ar
    17     6     2   ar
    18     2    14    1
@<TRIPOS>MOLECULE
3nrc_TCL_A_1.pdb
 17 18 0 0 0
SMALL
GASTEIGER

@<TRIPOS>ATOM
      1  C1        -5.6670  -27.5390   -8.9930 C.ar  262  TCL262      0.0566
      2  C2        -5.1700  -27.3310   -7.6660 C.ar  262  TCL262      0.0611
      3  C6        -6.3920  -26.4940   -9.6530 C.ar  262  TCL262      0.2307
      4  C5        -6.6130  -25.2670   -9.0010 C.ar  262  TCL262      0.1840
      5  C4        -6.1200  -25.0490   -7.6730 C.ar  262  TCL262      0.0417
      6  C3        -5.4000  -26.0920   -7.0130 C.ar  262  TCL262      0.0147
      7  C11      -11.4830  -23.8000   -9.0980 C.ar  262  TCL262      0.0587
      8  C10      -10.7670  -22.8180   -9.8770 C.ar  262  TCL262      0.0259
      9  C9        -9.3720  -22.9930  -10.0600 C.ar  262  TCL262      0.0929
     10  C8        -8.7030  -24.1350   -9.4700 C.ar  262  TCL262      0.1559
     11  C12      -10.8350  -24.9210   -8.5170 C.ar  262  TCL262      0.0146
     12  C13       -9.4470  -25.0990   -8.6960 C.ar  262  TCL262      0.0392
     13  O7        -7.3270  -24.2630   -9.6770 O.3   262  TCL262     -0.4494
     14 CL14       -4.3160  -28.5470   -6.8730 Cl    262  TCL262     -0.0821
     15 CL15      -13.1370  -23.5930   -8.8790 Cl    262  TCL262     -0.0822
     16 CL16       -8.5120  -21.8300  -10.9840 Cl    262  TCL262     -0.0790
     17  O17       -6.8870  -26.6450  -10.9170 O.3   262  TCL262     -0.2833
@<TRIPOS>BOND
     1    16     9    1
     2    17     3    1
     3     9     8   ar
     4     9    10   ar
     5     8     7   ar
     6    13    10    1
     7    13     4    1
     8     3     4   ar
     9     3     1   ar
    10    10    12   ar
    11     7    15    1
    12     7    11   ar
    13     4     5   ar
    14     1     2   ar
    15    12    11   ar
    16     5     6   ar
    17     2     6   ar
    18     2    14    1
@<TRIPOS>MOLECULE
3uic_09T_A_1.pdb
 20 22 0 0 0
SMALL
GASTEIGER

@<TRIPOS>ATOM
      1  C4        35.0100    6.4340   19.0940 C.ar  262  09T262     -0.0020
      2  C5        35.9690    7.4450   19.1620 C.ar  262  09T262     -0.0052
      3  C6        35.6610    8.7030   19.6290 C.ar  262  09T262      0.0093
      4  C7        34.3530    8.9290   19.9970 C.ar  262  09T262      0.0679
      5  N12       37.8590    8.2570   15.2540 N.2   262  09T262     -0.2550
      6  C13       38.3610    9.3220   15.8970 C.2   262  09T262      0.0737
      7  C15       39.3020   11.4730   16.3470 C.2   262  09T262     -0.0248
      8  C17       39.1770   11.2660   17.7090 C.2   262  09T262     -0.0283
      9  C20       38.2280    9.0860   17.2710 C.3   262  09T262      0.1216
     10 CL8        33.8530   10.5560   20.5830 Cl    262  09T262     -0.0814
     11  C2        33.3810    7.9220   19.9250 C.ar  262  09T262      0.0682
     12 CL1        31.6720    8.3050   20.4410 Cl    262  09T262     -0.0814
     13  C3        33.7070    6.6530   19.4720 C.ar  262  09T262      0.0120
     14  C9        37.3750    7.1500   18.7230 C.3   262  09T262      0.1012
     15  N10       37.6790    7.8350   17.4500 N.3   262  09T262     -0.2408
     16  C11       37.4570    7.3490   16.2120 C.3   262  09T262      0.2013
     17  C19       38.6520   10.0850   18.1560 C.2   262  09T262     -0.0090
     18  C18       39.6310   12.3100   18.6770 C.3   262  09T262      0.0304
     19  C16       39.9080   12.7410   15.8300 C.3   262  09T262      0.0307
     20  C14       38.9140   10.5040   15.4430 C.2   262  09T262      0.0114
@<TRIPOS>BOND
     1     5     6    2
     2     5    16    1
     3    20     6    1
     4    20     7    2
     5    19     7    1
     6     6     9    1
     7    16    15    1
     8     7     8    1
     9     9    15    1
    10     9    17    1
    11    15    14    1
    12     8    17    2
    13     8    18    1
    14    14     2    1
    15     1     2   ar
    16     1    13   ar
    17     2     3   ar
    18    13    11   ar
    19     3     4   ar
    20    11     4   ar
    21    11    12    1
    22     4    10    1
@<TRIPOS>MOLECULE
4alk_E9P_A_1.pdb
 16 17 0 0 0
SMALL
GASTEIGER

@<TRIPOS>ATOM
      1  C1       -18.3530    0.1830   25.8240 C.ar  1001  E9P1001     0.1839
      2  C2       -18.5320   -0.9790   26.6020 C.ar  1001  E9P1001     0.2295
      3  C3       -18.0990   -2.2150   26.1430 C.ar  1001  E9P1001     0.0410
      4  C4       -17.4630   -2.2800   24.8960 C.ar  1001  E9P1001    -0.0188
      5  C5       -17.3370   -1.1380   24.1000 C.ar  1001  E9P1001    -0.0009
      6  C6       -17.7910    0.0990   24.5590 C.ar  1001  E9P1001     0.0405
      7  O7       -18.8180    1.3730   26.3110 O.3   1001  E9P1001    -0.4503
      8  C8       -18.0620    2.1100   27.1350 C.ar  1001  E9P1001     0.1454
      9  C9       -16.7470    1.7330   27.3880 C.ar  1001  E9P1001     0.0375
     10  C10      -15.9580    2.5060   28.2460 C.ar  1001  E9P1001     0.0031
     11  C11      -16.4970    3.6800   28.7880 C.ar  1001  E9P1001     0.0002
     12  C12      -17.8050    4.0510   28.4900 C.ar  1001  E9P1001     0.0031
     13  C13      -18.6390    3.2490   27.6980 C.ar  1001  E9P1001     0.0375
     14  C14      -16.9920   -3.6120   24.3750 C.3   1001  E9P1001     0.0265
     15  CAA      -15.4970   -3.8450   24.6370 C.3   1001  E9P1001     0.0050
     16  O16      -19.1430   -0.8480   27.8210 O.3   1001  E9P1001    -0.2833
@<TRIPOS>BOND
     1     5     6   ar
     2     5     4   ar
     3    14    15    1
     4    14     4    1
     5     6     1   ar
     6     4     3   ar
     7     1     7    1
     8     1     2   ar
     9     3     2   ar
    10     7     8    1
    11     2    16    1
    12     8     9   ar
    13     8    13   ar
    14     9    10   ar
    15    13    12   ar
    16    10    11   ar
    17    12    11   ar
@<TRIPOS>MOLECULE
4fs3_0WE_A_1.pdb
 28 31 0 0 0
SMALL
GASTEIGER

@<TRIPOS>ATOM
      1  O2       112.2380   64.8150   35.4650 O.2   302  0WE302     -0.2748
      2  C1       111.2650   65.5680   35.4960 C.2   302  0WE302      0.2263
      3  C17      110.7310   66.0540   36.8440 C.3   302  0WE302      0.0900
      4  C18      111.6690   65.6640   37.9540 C.3   302  0WE302      0.0375
      5  C19      111.3040   66.2730   39.2900 C.2   302  0WE302     -0.0014
      6  C24      110.1770   67.0850   39.4630 C.2   302  0WE302      0.0040
      7  C23      109.8960   67.5950   40.7290 C.2   302  0WE302      0.0536
      8  C26      108.6900   68.4930   41.0070 C.3   302  0WE302      0.0564
      9  C25      108.2460   68.2660   42.4560 C.3   302  0WE302      0.1409
     10  C20      112.1370   65.9860   40.3640 C.2   302  0WE302      0.1062
     11  N21      111.9010   66.4710   41.5940 N.2   302  0WE302     -0.1822
     12  C22      110.8210   67.2630   41.8390 C.1   302  0WE302      0.0958
     13  N36      110.5910   67.7480   43.0920 N.2   302  0WE302     -0.2822
     14  C37      109.4060   68.2560   43.4570 C.1   302  0WE302      0.1897
     15  O28      109.2490   68.6820   44.5990 O.2   302  0WE302     -0.2134
     16  N3       110.6520   65.9860   34.3900 N.am  302  0WE302     -0.2708
     17  C4       111.2400   65.6720   33.0850 C.3   302  0WE302      0.1153
     18  C5       109.4120   66.8140   34.3380 C.3   302  0WE302      0.1579
     19  C6       109.9780   68.2020   34.3610 C.ar  302  0WE302      0.1389
     20  O10      110.4240   68.8590   35.4850 O.2   302  0WE302     -0.4564
     21  C9       110.9520   70.1220   35.1320 C.ar  302  0WE302      0.1446
     22  C8       110.8850   70.3380   33.6850 C.ar  302  0WE302      0.0332
     23  C7       110.2450   69.0900   33.2030 C.ar  302  0WE302      0.0131
     24  C38      109.9830   68.9260   31.7330 C.3   302  0WE302      0.0340
     25  C14      111.4940   71.0700   36.0000 C.ar  302  0WE302      0.0375
     26  C13      111.9510   72.2480   35.3970 C.ar  302  0WE302      0.0031
     27  C12      111.8840   72.4560   34.0060 C.ar  302  0WE302      0.0002
     28  C11      111.3430   71.5260   33.1110 C.ar  302  0WE302      0.0028
@<TRIPOS>BOND
     1    24    23    1
     2    17    16    1
     3    28    22   ar
     4    28    27   ar
     5    23    22   ar
     6    23    19   ar
     7    22    21   ar
     8    27    26   ar
     9    18    19    1
    10    18    16    1
    11    19    20   ar
    12    16     2   am
    13    21    20   ar
    14    21    25   ar
    15    26    25   ar
    16     1     2    2
    17     2     3    1
    18     3     4    1
    19     4     5    1
    20     5     6    1
    21     5    10    2
    22     6     7    2
    23    10    11    1
    24     7     8    1
    25     7    12    1
    26     8     9    1
    27    11    12    2
    28    12    13    2
    29     9    14    1
    30    13    14    2
    31    14    15    2
